<?xml version="1.0" encoding="UTF-8"?>

<!-- generated on 06/21/20 15:50:00 by Eclipse SUMO netedit Version 1.4.0
<configuration xmlns:xsi="http://www.w3.org/2001/XMLSchema-instance" xsi:noNamespaceSchemaLocation="http://sumo.dlr.de/xsd/netconvertConfiguration.xsd">

    <input>
        <sumo-net-file value="C:\Users\aarda\Sumo\myownmaps\extended\cross2x2.net.xml"/>
    </input>

    <output>
        <output-file value="C:\Users\aarda\Sumo\myownmaps\extended\cross2x3_turns.net.xml"/>
    </output>

    <processing>
        <geometry.min-radius.fix.railways value="false"/>
        <geometry.max-grade.fix value="false"/>
        <offset.disable-normalization value="true"/>
        <lefthand value="false"/>
    </processing>

    <junctions>
        <no-turnarounds value="true"/>
        <junctions.corner-detail value="5"/>
        <junctions.limit-turn-speed value="5.5"/>
        <rectangular-lane-cut value="false"/>
    </junctions>

    <pedestrian>
        <walkingareas value="false"/>
    </pedestrian>

    <report>
        <aggregate-warnings value="5"/>
    </report>

</configuration>
-->

<net version="1.3" junctionCornerDetail="5" limitTurnSpeed="5.50" xmlns:xsi="http://www.w3.org/2001/XMLSchema-instance" xsi:noNamespaceSchemaLocation="http://sumo.dlr.de/xsd/net_file.xsd">

    <location netOffset="0.00,0.00" convBoundary="-100.00,-200.00,300.00,100.00" origBoundary="-10000000000.00,-10000000000.00,10000000000.00,10000000000.00" projParameter="!"/>

    <edge id=":10_0" function="internal">
        <lane id=":10_0_0" index="0" speed="6.51" length="9.03" shape="92.00,-86.40 91.65,-88.85 90.60,-90.60 88.85,-91.65 86.40,-92.00"/>
    </edge>
    <edge id=":10_1" function="internal">
        <lane id=":10_1_0" index="0" speed="13.89" length="27.20" shape="95.20,-86.40 95.20,-113.60"/>
        <lane id=":10_1_1" index="1" speed="13.89" length="27.20" shape="98.40,-86.40 98.40,-113.60"/>
    </edge>
    <edge id=":10_3" function="internal">
        <lane id=":10_3_0" index="0" speed="10.36" length="7.98" shape="98.40,-86.40 99.35,-93.05 100.00,-94.13"/>
    </edge>
    <edge id=":10_16" function="internal">
        <lane id=":10_16_0" index="0" speed="10.36" length="16.53" shape="100.00,-94.13 102.20,-97.80 106.95,-100.65 113.60,-101.60"/>
    </edge>
    <edge id=":10_4" function="internal">
        <lane id=":10_4_0" index="0" speed="6.51" length="9.03" shape="113.60,-92.00 111.15,-91.65 109.40,-90.60 108.35,-88.85 108.00,-86.40"/>
    </edge>
    <edge id=":10_5" function="internal">
        <lane id=":10_5_0" index="0" speed="13.89" length="27.20" shape="113.60,-95.20 86.40,-95.20"/>
        <lane id=":10_5_1" index="1" speed="13.89" length="27.20" shape="113.60,-98.40 86.40,-98.40"/>
    </edge>
    <edge id=":10_7" function="internal">
        <lane id=":10_7_0" index="0" speed="10.36" length="7.98" shape="113.60,-98.40 106.95,-99.35 105.87,-100.00"/>
    </edge>
    <edge id=":10_17" function="internal">
        <lane id=":10_17_0" index="0" speed="10.36" length="16.53" shape="105.87,-100.00 102.20,-102.20 99.35,-106.95 98.40,-113.60"/>
    </edge>
    <edge id=":10_8" function="internal">
        <lane id=":10_8_0" index="0" speed="6.51" length="9.03" shape="108.00,-113.60 108.35,-111.15 109.40,-109.40 111.15,-108.35 113.60,-108.00"/>
    </edge>
    <edge id=":10_9" function="internal">
        <lane id=":10_9_0" index="0" speed="13.89" length="27.20" shape="104.80,-113.60 104.80,-86.40"/>
        <lane id=":10_9_1" index="1" speed="13.89" length="27.20" shape="101.60,-113.60 101.60,-86.40"/>
    </edge>
    <edge id=":10_11" function="internal">
        <lane id=":10_11_0" index="0" speed="10.36" length="7.98" shape="101.60,-113.60 100.65,-106.95 100.00,-105.87"/>
    </edge>
    <edge id=":10_18" function="internal">
        <lane id=":10_18_0" index="0" speed="10.36" length="16.53" shape="100.00,-105.87 97.80,-102.20 93.05,-99.35 86.40,-98.40"/>
    </edge>
    <edge id=":10_12" function="internal">
        <lane id=":10_12_0" index="0" speed="6.51" length="9.03" shape="86.40,-108.00 88.85,-108.35 90.60,-109.40 91.65,-111.15 92.00,-113.60"/>
    </edge>
    <edge id=":10_13" function="internal">
        <lane id=":10_13_0" index="0" speed="13.89" length="27.20" shape="86.40,-104.80 113.60,-104.80"/>
        <lane id=":10_13_1" index="1" speed="13.89" length="27.20" shape="86.40,-101.60 113.60,-101.60"/>
    </edge>
    <edge id=":10_15" function="internal">
        <lane id=":10_15_0" index="0" speed="10.36" length="7.98" shape="86.40,-101.60 93.05,-100.65 94.13,-100.00"/>
    </edge>
    <edge id=":10_19" function="internal">
        <lane id=":10_19_0" index="0" speed="10.36" length="16.53" shape="94.13,-100.00 97.80,-97.80 100.65,-93.05 101.60,-86.40"/>
    </edge>
    <edge id=":11_0" function="internal">
        <lane id=":11_0_0" index="0" speed="6.51" length="9.03" shape="192.00,-86.40 191.65,-88.85 190.60,-90.60 188.85,-91.65 186.40,-92.00"/>
    </edge>
    <edge id=":11_1" function="internal">
        <lane id=":11_1_0" index="0" speed="13.89" length="27.20" shape="195.20,-86.40 195.20,-113.60"/>
        <lane id=":11_1_1" index="1" speed="13.89" length="27.20" shape="198.40,-86.40 198.40,-113.60"/>
    </edge>
    <edge id=":11_3" function="internal">
        <lane id=":11_3_0" index="0" speed="10.36" length="7.98" shape="198.40,-86.40 199.35,-93.05 200.00,-94.13"/>
    </edge>
    <edge id=":11_16" function="internal">
        <lane id=":11_16_0" index="0" speed="10.36" length="16.53" shape="200.00,-94.13 202.20,-97.80 206.95,-100.65 213.60,-101.60"/>
    </edge>
    <edge id=":11_4" function="internal">
        <lane id=":11_4_0" index="0" speed="6.51" length="9.03" shape="213.60,-92.00 211.15,-91.65 209.40,-90.60 208.35,-88.85 208.00,-86.40"/>
    </edge>
    <edge id=":11_5" function="internal">
        <lane id=":11_5_0" index="0" speed="13.89" length="27.20" shape="213.60,-95.20 186.40,-95.20"/>
        <lane id=":11_5_1" index="1" speed="13.89" length="27.20" shape="213.60,-98.40 186.40,-98.40"/>
    </edge>
    <edge id=":11_7" function="internal">
        <lane id=":11_7_0" index="0" speed="10.36" length="7.98" shape="213.60,-98.40 206.95,-99.35 205.87,-100.00"/>
    </edge>
    <edge id=":11_17" function="internal">
        <lane id=":11_17_0" index="0" speed="10.36" length="16.53" shape="205.87,-100.00 202.20,-102.20 199.35,-106.95 198.40,-113.60"/>
    </edge>
    <edge id=":11_8" function="internal">
        <lane id=":11_8_0" index="0" speed="6.51" length="9.03" shape="208.00,-113.60 208.35,-111.15 209.40,-109.40 211.15,-108.35 213.60,-108.00"/>
    </edge>
    <edge id=":11_9" function="internal">
        <lane id=":11_9_0" index="0" speed="13.89" length="27.20" shape="204.80,-113.60 204.80,-86.40"/>
        <lane id=":11_9_1" index="1" speed="13.89" length="27.20" shape="201.60,-113.60 201.60,-86.40"/>
    </edge>
    <edge id=":11_11" function="internal">
        <lane id=":11_11_0" index="0" speed="10.36" length="7.98" shape="201.60,-113.60 200.65,-106.95 200.00,-105.87"/>
    </edge>
    <edge id=":11_18" function="internal">
        <lane id=":11_18_0" index="0" speed="10.36" length="16.53" shape="200.00,-105.87 197.80,-102.20 193.05,-99.35 186.40,-98.40"/>
    </edge>
    <edge id=":11_12" function="internal">
        <lane id=":11_12_0" index="0" speed="6.51" length="9.03" shape="186.40,-108.00 188.85,-108.35 190.60,-109.40 191.65,-111.15 192.00,-113.60"/>
    </edge>
    <edge id=":11_13" function="internal">
        <lane id=":11_13_0" index="0" speed="13.89" length="27.20" shape="186.40,-104.80 213.60,-104.80"/>
        <lane id=":11_13_1" index="1" speed="13.89" length="27.20" shape="186.40,-101.60 213.60,-101.60"/>
    </edge>
    <edge id=":11_15" function="internal">
        <lane id=":11_15_0" index="0" speed="10.36" length="7.98" shape="186.40,-101.60 193.05,-100.65 194.13,-100.00"/>
    </edge>
    <edge id=":11_19" function="internal">
        <lane id=":11_19_0" index="0" speed="10.36" length="16.53" shape="194.13,-100.00 197.80,-97.80 200.65,-93.05 201.60,-86.40"/>
    </edge>
    <edge id=":4_0" function="internal">
        <lane id=":4_0_0" index="0" speed="6.51" length="9.03" shape="-8.00,13.60 -8.35,11.15 -9.40,9.40 -11.15,8.35 -13.60,8.00"/>
    </edge>
    <edge id=":4_1" function="internal">
        <lane id=":4_1_0" index="0" speed="13.89" length="27.20" shape="-4.80,13.60 -4.80,-13.60"/>
        <lane id=":4_1_1" index="1" speed="13.89" length="27.20" shape="-1.60,13.60 -1.60,-13.60"/>
    </edge>
    <edge id=":4_3" function="internal">
        <lane id=":4_3_0" index="0" speed="10.36" length="7.98" shape="-1.60,13.60 -0.65,6.95 -0.00,5.87"/>
    </edge>
    <edge id=":4_16" function="internal">
        <lane id=":4_16_0" index="0" speed="10.36" length="16.53" shape="-0.00,5.87 2.20,2.20 6.95,-0.65 13.60,-1.60"/>
    </edge>
    <edge id=":4_4" function="internal">
        <lane id=":4_4_0" index="0" speed="6.51" length="9.03" shape="13.60,8.00 11.15,8.35 9.40,9.40 8.35,11.15 8.00,13.60"/>
    </edge>
    <edge id=":4_5" function="internal">
        <lane id=":4_5_0" index="0" speed="13.89" length="27.20" shape="13.60,4.80 -13.60,4.80"/>
        <lane id=":4_5_1" index="1" speed="13.89" length="27.20" shape="13.60,1.60 -13.60,1.60"/>
    </edge>
    <edge id=":4_7" function="internal">
        <lane id=":4_7_0" index="0" speed="10.36" length="7.98" shape="13.60,1.60 6.95,0.65 5.87,0.00"/>
    </edge>
    <edge id=":4_17" function="internal">
        <lane id=":4_17_0" index="0" speed="10.36" length="16.53" shape="5.87,0.00 2.20,-2.20 -0.65,-6.95 -1.60,-13.60"/>
    </edge>
    <edge id=":4_8" function="internal">
        <lane id=":4_8_0" index="0" speed="6.51" length="9.03" shape="8.00,-13.60 8.35,-11.15 9.40,-9.40 11.15,-8.35 13.60,-8.00"/>
    </edge>
    <edge id=":4_9" function="internal">
        <lane id=":4_9_0" index="0" speed="13.89" length="27.20" shape="4.80,-13.60 4.80,13.60"/>
        <lane id=":4_9_1" index="1" speed="13.89" length="27.20" shape="1.60,-13.60 1.60,13.60"/>
    </edge>
    <edge id=":4_11" function="internal">
        <lane id=":4_11_0" index="0" speed="10.36" length="7.98" shape="1.60,-13.60 0.65,-6.95 0.00,-5.87"/>
    </edge>
    <edge id=":4_18" function="internal">
        <lane id=":4_18_0" index="0" speed="10.36" length="16.53" shape="0.00,-5.87 -2.20,-2.20 -6.95,0.65 -13.60,1.60"/>
    </edge>
    <edge id=":4_12" function="internal">
        <lane id=":4_12_0" index="0" speed="6.51" length="9.03" shape="-13.60,-8.00 -11.15,-8.35 -9.40,-9.40 -8.35,-11.15 -8.00,-13.60"/>
    </edge>
    <edge id=":4_13" function="internal">
        <lane id=":4_13_0" index="0" speed="13.89" length="27.20" shape="-13.60,-4.80 13.60,-4.80"/>
        <lane id=":4_13_1" index="1" speed="13.89" length="27.20" shape="-13.60,-1.60 13.60,-1.60"/>
    </edge>
    <edge id=":4_15" function="internal">
        <lane id=":4_15_0" index="0" speed="10.36" length="7.98" shape="-13.60,-1.60 -6.95,-0.65 -5.87,-0.00"/>
    </edge>
    <edge id=":4_19" function="internal">
        <lane id=":4_19_0" index="0" speed="10.36" length="16.53" shape="-5.87,-0.00 -2.20,2.20 0.65,6.95 1.60,13.60"/>
    </edge>
    <edge id=":5_0" function="internal">
        <lane id=":5_0_0" index="0" speed="6.51" length="9.03" shape="92.00,13.60 91.65,11.15 90.60,9.40 88.85,8.35 86.40,8.00"/>
    </edge>
    <edge id=":5_1" function="internal">
        <lane id=":5_1_0" index="0" speed="13.89" length="27.20" shape="95.20,13.60 95.20,-13.60"/>
        <lane id=":5_1_1" index="1" speed="13.89" length="27.20" shape="98.40,13.60 98.40,-13.60"/>
    </edge>
    <edge id=":5_3" function="internal">
        <lane id=":5_3_0" index="0" speed="10.36" length="7.98" shape="98.40,13.60 99.35,6.95 100.00,5.87"/>
    </edge>
    <edge id=":5_16" function="internal">
        <lane id=":5_16_0" index="0" speed="10.36" length="16.53" shape="100.00,5.87 102.20,2.20 106.95,-0.65 113.60,-1.60"/>
    </edge>
    <edge id=":5_4" function="internal">
        <lane id=":5_4_0" index="0" speed="6.51" length="9.03" shape="113.60,8.00 111.15,8.35 109.40,9.40 108.35,11.15 108.00,13.60"/>
    </edge>
    <edge id=":5_5" function="internal">
        <lane id=":5_5_0" index="0" speed="13.89" length="27.20" shape="113.60,4.80 86.40,4.80"/>
        <lane id=":5_5_1" index="1" speed="13.89" length="27.20" shape="113.60,1.60 86.40,1.60"/>
    </edge>
    <edge id=":5_7" function="internal">
        <lane id=":5_7_0" index="0" speed="10.36" length="7.98" shape="113.60,1.60 106.95,0.65 105.87,0.00"/>
    </edge>
    <edge id=":5_17" function="internal">
        <lane id=":5_17_0" index="0" speed="10.36" length="16.53" shape="105.87,0.00 102.20,-2.20 99.35,-6.95 98.40,-13.60"/>
    </edge>
    <edge id=":5_8" function="internal">
        <lane id=":5_8_0" index="0" speed="6.51" length="9.03" shape="108.00,-13.60 108.35,-11.15 109.40,-9.40 111.15,-8.35 113.60,-8.00"/>
    </edge>
    <edge id=":5_9" function="internal">
        <lane id=":5_9_0" index="0" speed="13.89" length="27.20" shape="104.80,-13.60 104.80,13.60"/>
        <lane id=":5_9_1" index="1" speed="13.89" length="27.20" shape="101.60,-13.60 101.60,13.60"/>
    </edge>
    <edge id=":5_11" function="internal">
        <lane id=":5_11_0" index="0" speed="10.36" length="7.98" shape="101.60,-13.60 100.65,-6.95 100.00,-5.87"/>
    </edge>
    <edge id=":5_18" function="internal">
        <lane id=":5_18_0" index="0" speed="10.36" length="16.53" shape="100.00,-5.87 97.80,-2.20 93.05,0.65 86.40,1.60"/>
    </edge>
    <edge id=":5_12" function="internal">
        <lane id=":5_12_0" index="0" speed="6.51" length="9.03" shape="86.40,-8.00 88.85,-8.35 90.60,-9.40 91.65,-11.15 92.00,-13.60"/>
    </edge>
    <edge id=":5_13" function="internal">
        <lane id=":5_13_0" index="0" speed="13.89" length="27.20" shape="86.40,-4.80 113.60,-4.80"/>
        <lane id=":5_13_1" index="1" speed="13.89" length="27.20" shape="86.40,-1.60 113.60,-1.60"/>
    </edge>
    <edge id=":5_15" function="internal">
        <lane id=":5_15_0" index="0" speed="10.36" length="7.98" shape="86.40,-1.60 93.05,-0.65 94.13,-0.00"/>
    </edge>
    <edge id=":5_19" function="internal">
        <lane id=":5_19_0" index="0" speed="10.36" length="16.53" shape="94.13,-0.00 97.80,2.20 100.65,6.95 101.60,13.60"/>
    </edge>
    <edge id=":6_0" function="internal">
        <lane id=":6_0_0" index="0" speed="6.51" length="9.03" shape="192.00,13.60 191.65,11.15 190.60,9.40 188.85,8.35 186.40,8.00"/>
    </edge>
    <edge id=":6_1" function="internal">
        <lane id=":6_1_0" index="0" speed="13.89" length="27.20" shape="195.20,13.60 195.20,-13.60"/>
        <lane id=":6_1_1" index="1" speed="13.89" length="27.20" shape="198.40,13.60 198.40,-13.60"/>
    </edge>
    <edge id=":6_3" function="internal">
        <lane id=":6_3_0" index="0" speed="10.36" length="7.98" shape="198.40,13.60 199.35,6.95 200.00,5.87"/>
    </edge>
    <edge id=":6_16" function="internal">
        <lane id=":6_16_0" index="0" speed="10.36" length="16.53" shape="200.00,5.87 202.20,2.20 206.95,-0.65 213.60,-1.60"/>
    </edge>
    <edge id=":6_4" function="internal">
        <lane id=":6_4_0" index="0" speed="6.51" length="9.03" shape="213.60,8.00 211.15,8.35 209.40,9.40 208.35,11.15 208.00,13.60"/>
    </edge>
    <edge id=":6_5" function="internal">
        <lane id=":6_5_0" index="0" speed="13.89" length="27.20" shape="213.60,4.80 186.40,4.80"/>
        <lane id=":6_5_1" index="1" speed="13.89" length="27.20" shape="213.60,1.60 186.40,1.60"/>
    </edge>
    <edge id=":6_7" function="internal">
        <lane id=":6_7_0" index="0" speed="10.36" length="7.98" shape="213.60,1.60 206.95,0.65 205.87,-0.00"/>
    </edge>
    <edge id=":6_17" function="internal">
        <lane id=":6_17_0" index="0" speed="10.36" length="16.53" shape="205.87,-0.00 202.20,-2.20 199.35,-6.95 198.40,-13.60"/>
    </edge>
    <edge id=":6_8" function="internal">
        <lane id=":6_8_0" index="0" speed="6.51" length="9.03" shape="208.00,-13.60 208.35,-11.15 209.40,-9.40 211.15,-8.35 213.60,-8.00"/>
    </edge>
    <edge id=":6_9" function="internal">
        <lane id=":6_9_0" index="0" speed="13.89" length="27.20" shape="204.80,-13.60 204.80,13.60"/>
        <lane id=":6_9_1" index="1" speed="13.89" length="27.20" shape="201.60,-13.60 201.60,13.60"/>
    </edge>
    <edge id=":6_11" function="internal">
        <lane id=":6_11_0" index="0" speed="10.36" length="7.98" shape="201.60,-13.60 200.65,-6.95 200.00,-5.87"/>
    </edge>
    <edge id=":6_18" function="internal">
        <lane id=":6_18_0" index="0" speed="10.36" length="16.53" shape="200.00,-5.87 197.80,-2.20 193.05,0.65 186.40,1.60"/>
    </edge>
    <edge id=":6_12" function="internal">
        <lane id=":6_12_0" index="0" speed="6.51" length="9.03" shape="186.40,-8.00 188.85,-8.35 190.60,-9.40 191.65,-11.15 192.00,-13.60"/>
    </edge>
    <edge id=":6_13" function="internal">
        <lane id=":6_13_0" index="0" speed="13.89" length="27.20" shape="186.40,-4.80 213.60,-4.80"/>
        <lane id=":6_13_1" index="1" speed="13.89" length="27.20" shape="186.40,-1.60 213.60,-1.60"/>
    </edge>
    <edge id=":6_15" function="internal">
        <lane id=":6_15_0" index="0" speed="10.36" length="7.98" shape="186.40,-1.60 193.05,-0.65 194.13,0.00"/>
    </edge>
    <edge id=":6_19" function="internal">
        <lane id=":6_19_0" index="0" speed="10.36" length="16.53" shape="194.13,0.00 197.80,2.20 200.65,6.95 201.60,13.60"/>
    </edge>
    <edge id=":9_0" function="internal">
        <lane id=":9_0_0" index="0" speed="6.51" length="9.03" shape="-8.00,-86.40 -8.35,-88.85 -9.40,-90.60 -11.15,-91.65 -13.60,-92.00"/>
    </edge>
    <edge id=":9_1" function="internal">
        <lane id=":9_1_0" index="0" speed="13.89" length="27.20" shape="-4.80,-86.40 -4.80,-113.60"/>
        <lane id=":9_1_1" index="1" speed="13.89" length="27.20" shape="-1.60,-86.40 -1.60,-113.60"/>
    </edge>
    <edge id=":9_3" function="internal">
        <lane id=":9_3_0" index="0" speed="10.36" length="7.98" shape="-1.60,-86.40 -0.65,-93.05 -0.00,-94.13"/>
    </edge>
    <edge id=":9_16" function="internal">
        <lane id=":9_16_0" index="0" speed="10.36" length="16.53" shape="-0.00,-94.13 2.20,-97.80 6.95,-100.65 13.60,-101.60"/>
    </edge>
    <edge id=":9_4" function="internal">
        <lane id=":9_4_0" index="0" speed="6.51" length="9.03" shape="13.60,-92.00 11.15,-91.65 9.40,-90.60 8.35,-88.85 8.00,-86.40"/>
    </edge>
    <edge id=":9_5" function="internal">
        <lane id=":9_5_0" index="0" speed="13.89" length="27.20" shape="13.60,-95.20 -13.60,-95.20"/>
        <lane id=":9_5_1" index="1" speed="13.89" length="27.20" shape="13.60,-98.40 -13.60,-98.40"/>
    </edge>
    <edge id=":9_7" function="internal">
        <lane id=":9_7_0" index="0" speed="10.36" length="7.98" shape="13.60,-98.40 6.95,-99.35 5.87,-100.00"/>
    </edge>
    <edge id=":9_17" function="internal">
        <lane id=":9_17_0" index="0" speed="10.36" length="16.53" shape="5.87,-100.00 2.20,-102.20 -0.65,-106.95 -1.60,-113.60"/>
    </edge>
    <edge id=":9_8" function="internal">
        <lane id=":9_8_0" index="0" speed="6.51" length="9.03" shape="8.00,-113.60 8.35,-111.15 9.40,-109.40 11.15,-108.35 13.60,-108.00"/>
    </edge>
    <edge id=":9_9" function="internal">
        <lane id=":9_9_0" index="0" speed="13.89" length="27.20" shape="4.80,-113.60 4.80,-86.40"/>
        <lane id=":9_9_1" index="1" speed="13.89" length="27.20" shape="1.60,-113.60 1.60,-86.40"/>
    </edge>
    <edge id=":9_11" function="internal">
        <lane id=":9_11_0" index="0" speed="10.36" length="7.98" shape="1.60,-113.60 0.65,-106.95 0.00,-105.87"/>
    </edge>
    <edge id=":9_18" function="internal">
        <lane id=":9_18_0" index="0" speed="10.36" length="16.53" shape="0.00,-105.87 -2.20,-102.20 -6.95,-99.35 -13.60,-98.40"/>
    </edge>
    <edge id=":9_12" function="internal">
        <lane id=":9_12_0" index="0" speed="6.51" length="9.03" shape="-13.60,-108.00 -11.15,-108.35 -9.40,-109.40 -8.35,-111.15 -8.00,-113.60"/>
    </edge>
    <edge id=":9_13" function="internal">
        <lane id=":9_13_0" index="0" speed="13.89" length="27.20" shape="-13.60,-104.80 13.60,-104.80"/>
        <lane id=":9_13_1" index="1" speed="13.89" length="27.20" shape="-13.60,-101.60 13.60,-101.60"/>
    </edge>
    <edge id=":9_15" function="internal">
        <lane id=":9_15_0" index="0" speed="10.36" length="7.98" shape="-13.60,-101.60 -6.95,-100.65 -5.87,-100.00"/>
    </edge>
    <edge id=":9_19" function="internal">
        <lane id=":9_19_0" index="0" speed="10.36" length="16.53" shape="-5.87,-100.00 -2.20,-97.80 0.65,-93.05 1.60,-86.40"/>
    </edge>

    <edge id="e1i" from="5" to="4" priority="-1">
        <lane id="e1i_0" index="0" speed="13.89" length="72.80" shape="86.40,8.00 13.60,8.00"/>
        <lane id="e1i_1" index="1" speed="13.89" length="72.80" shape="86.40,4.80 13.60,4.80"/>
        <lane id="e1i_2" index="2" speed="13.89" length="72.80" shape="86.40,1.60 13.60,1.60"/>
    </edge>
    <edge id="e2i" from="6" to="5" priority="-1">
        <lane id="e2i_0" index="0" speed="13.89" length="72.80" shape="186.40,8.00 113.60,8.00"/>
        <lane id="e2i_1" index="1" speed="13.89" length="72.80" shape="186.40,4.80 113.60,4.80"/>
        <lane id="e2i_2" index="2" speed="13.89" length="72.80" shape="186.40,1.60 113.60,1.60"/>
    </edge>
    <edge id="e3i" from="7" to="6" priority="-1">
        <lane id="e3i_0" index="0" speed="13.89" length="86.40" shape="300.00,8.00 213.60,8.00"/>
        <lane id="e3i_1" index="1" speed="13.89" length="86.40" shape="300.00,4.80 213.60,4.80"/>
        <lane id="e3i_2" index="2" speed="13.89" length="86.40" shape="300.00,1.60 213.60,1.60"/>
    </edge>
    <edge id="e3o" from="6" to="7" priority="-1">
        <lane id="e3o_0" index="0" speed="13.89" length="86.40" shape="213.60,-8.00 300.00,-8.00"/>
        <lane id="e3o_1" index="1" speed="13.89" length="86.40" shape="213.60,-4.80 300.00,-4.80"/>
        <lane id="e3o_2" index="2" speed="13.89" length="86.40" shape="213.60,-1.60 300.00,-1.60"/>
    </edge>
    <edge id="e4i" from="10" to="9" priority="-1">
        <lane id="e4i_0" index="0" speed="13.89" length="72.80" shape="86.40,-92.00 13.60,-92.00"/>
        <lane id="e4i_1" index="1" speed="13.89" length="72.80" shape="86.40,-95.20 13.60,-95.20"/>
        <lane id="e4i_2" index="2" speed="13.89" length="72.80" shape="86.40,-98.40 13.60,-98.40"/>
    </edge>
    <edge id="e5i" from="11" to="10" priority="-1">
        <lane id="e5i_0" index="0" speed="13.89" length="72.80" shape="186.40,-92.00 113.60,-92.00"/>
        <lane id="e5i_1" index="1" speed="13.89" length="72.80" shape="186.40,-95.20 113.60,-95.20"/>
        <lane id="e5i_2" index="2" speed="13.89" length="72.80" shape="186.40,-98.40 113.60,-98.40"/>
    </edge>
    <edge id="e6i" from="12" to="11" priority="-1">
        <lane id="e6i_0" index="0" speed="13.89" length="86.40" shape="300.00,-92.00 213.60,-92.00"/>
        <lane id="e6i_1" index="1" speed="13.89" length="86.40" shape="300.00,-95.20 213.60,-95.20"/>
        <lane id="e6i_2" index="2" speed="13.89" length="86.40" shape="300.00,-98.40 213.60,-98.40"/>
    </edge>
    <edge id="e6o" from="11" to="12" priority="-1">
        <lane id="e6o_0" index="0" speed="13.89" length="86.40" shape="213.60,-108.00 300.00,-108.00"/>
        <lane id="e6o_1" index="1" speed="13.89" length="86.40" shape="213.60,-104.80 300.00,-104.80"/>
        <lane id="e6o_2" index="2" speed="13.89" length="86.40" shape="213.60,-101.60 300.00,-101.60"/>
    </edge>
    <edge id="n1i" from="0" to="4" priority="-1">
        <lane id="n1i_0" index="0" speed="13.89" length="86.40" shape="-8.00,100.00 -8.00,13.60"/>
        <lane id="n1i_1" index="1" speed="13.89" length="86.40" shape="-4.80,100.00 -4.80,13.60"/>
        <lane id="n1i_2" index="2" speed="13.89" length="86.40" shape="-1.60,100.00 -1.60,13.60"/>
    </edge>
    <edge id="n1o" from="4" to="0" priority="-1">
        <lane id="n1o_0" index="0" speed="13.89" length="86.40" shape="8.00,13.60 8.00,100.00"/>
        <lane id="n1o_1" index="1" speed="13.89" length="86.40" shape="4.80,13.60 4.80,100.00"/>
        <lane id="n1o_2" index="2" speed="13.89" length="86.40" shape="1.60,13.60 1.60,100.00"/>
    </edge>
    <edge id="n2i" from="1" to="5" priority="-1">
        <lane id="n2i_0" index="0" speed="13.89" length="86.40" shape="92.00,100.00 92.00,13.60"/>
        <lane id="n2i_1" index="1" speed="13.89" length="86.40" shape="95.20,100.00 95.20,13.60"/>
        <lane id="n2i_2" index="2" speed="13.89" length="86.40" shape="98.40,100.00 98.40,13.60"/>
    </edge>
    <edge id="n2o" from="5" to="1" priority="-1">
        <lane id="n2o_0" index="0" speed="13.89" length="86.40" shape="108.00,13.60 108.00,100.00"/>
        <lane id="n2o_1" index="1" speed="13.89" length="86.40" shape="104.80,13.60 104.80,100.00"/>
        <lane id="n2o_2" index="2" speed="13.89" length="86.40" shape="101.60,13.60 101.60,100.00"/>
    </edge>
    <edge id="n3i" from="2" to="6" priority="-1">
        <lane id="n3i_0" index="0" speed="13.89" length="86.40" shape="192.00,100.00 192.00,13.60"/>
        <lane id="n3i_1" index="1" speed="13.89" length="86.40" shape="195.20,100.00 195.20,13.60"/>
        <lane id="n3i_2" index="2" speed="13.89" length="86.40" shape="198.40,100.00 198.40,13.60"/>
    </edge>
    <edge id="n3o" from="6" to="2" priority="-1">
        <lane id="n3o_0" index="0" speed="13.89" length="86.40" shape="208.00,13.60 208.00,100.00"/>
        <lane id="n3o_1" index="1" speed="13.89" length="86.40" shape="204.80,13.60 204.80,100.00"/>
        <lane id="n3o_2" index="2" speed="13.89" length="86.40" shape="201.60,13.60 201.60,100.00"/>
    </edge>
    <edge id="n4i" from="4" to="9" priority="-1">
        <lane id="n4i_0" index="0" speed="13.89" length="72.80" shape="-8.00,-13.60 -8.00,-86.40"/>
        <lane id="n4i_1" index="1" speed="13.89" length="72.80" shape="-4.80,-13.60 -4.80,-86.40"/>
        <lane id="n4i_2" index="2" speed="13.89" length="72.80" shape="-1.60,-13.60 -1.60,-86.40"/>
    </edge>
    <edge id="n5i" from="5" to="10" priority="-1">
        <lane id="n5i_0" index="0" speed="13.89" length="72.80" shape="92.00,-13.60 92.00,-86.40"/>
        <lane id="n5i_1" index="1" speed="13.89" length="72.80" shape="95.20,-13.60 95.20,-86.40"/>
        <lane id="n5i_2" index="2" speed="13.89" length="72.80" shape="98.40,-13.60 98.40,-86.40"/>
    </edge>
    <edge id="n6i" from="6" to="11" priority="-1">
        <lane id="n6i_0" index="0" speed="13.89" length="72.80" shape="192.00,-13.60 192.00,-86.40"/>
        <lane id="n6i_1" index="1" speed="13.89" length="72.80" shape="195.20,-13.60 195.20,-86.40"/>
        <lane id="n6i_2" index="2" speed="13.89" length="72.80" shape="198.40,-13.60 198.40,-86.40"/>
    </edge>
    <edge id="s1i" from="9" to="4" priority="-1">
        <lane id="s1i_0" index="0" speed="13.89" length="72.80" shape="8.00,-86.40 8.00,-13.60"/>
        <lane id="s1i_1" index="1" speed="13.89" length="72.80" shape="4.80,-86.40 4.80,-13.60"/>
        <lane id="s1i_2" index="2" speed="13.89" length="72.80" shape="1.60,-86.40 1.60,-13.60"/>
    </edge>
    <edge id="s2i" from="10" to="5" priority="-1">
        <lane id="s2i_0" index="0" speed="13.89" length="72.80" shape="108.00,-86.40 108.00,-13.60"/>
        <lane id="s2i_1" index="1" speed="13.89" length="72.80" shape="104.80,-86.40 104.80,-13.60"/>
        <lane id="s2i_2" index="2" speed="13.89" length="72.80" shape="101.60,-86.40 101.60,-13.60"/>
    </edge>
    <edge id="s3i" from="11" to="6" priority="-1">
        <lane id="s3i_0" index="0" speed="13.89" length="72.80" shape="208.00,-86.40 208.00,-13.60"/>
        <lane id="s3i_1" index="1" speed="13.89" length="72.80" shape="204.80,-86.40 204.80,-13.60"/>
        <lane id="s3i_2" index="2" speed="13.89" length="72.80" shape="201.60,-86.40 201.60,-13.60"/>
    </edge>
    <edge id="s4i" from="13" to="9" priority="-1">
        <lane id="s4i_0" index="0" speed="13.89" length="86.40" shape="8.00,-200.00 8.00,-113.60"/>
        <lane id="s4i_1" index="1" speed="13.89" length="86.40" shape="4.80,-200.00 4.80,-113.60"/>
        <lane id="s4i_2" index="2" speed="13.89" length="86.40" shape="1.60,-200.00 1.60,-113.60"/>
    </edge>
    <edge id="s4o" from="9" to="13" priority="-1">
        <lane id="s4o_0" index="0" speed="13.89" length="86.40" shape="-8.00,-113.60 -8.00,-200.00"/>
        <lane id="s4o_1" index="1" speed="13.89" length="86.40" shape="-4.80,-113.60 -4.80,-200.00"/>
        <lane id="s4o_2" index="2" speed="13.89" length="86.40" shape="-1.60,-113.60 -1.60,-200.00"/>
    </edge>
    <edge id="s5i" from="14" to="10" priority="-1">
        <lane id="s5i_0" index="0" speed="13.89" length="86.40" shape="108.00,-200.00 108.00,-113.60"/>
        <lane id="s5i_1" index="1" speed="13.89" length="86.40" shape="104.80,-200.00 104.80,-113.60"/>
        <lane id="s5i_2" index="2" speed="13.89" length="86.40" shape="101.60,-200.00 101.60,-113.60"/>
    </edge>
    <edge id="s5o" from="10" to="14" priority="-1">
        <lane id="s5o_0" index="0" speed="13.89" length="86.40" shape="92.00,-113.60 92.00,-200.00"/>
        <lane id="s5o_1" index="1" speed="13.89" length="86.40" shape="95.20,-113.60 95.20,-200.00"/>
        <lane id="s5o_2" index="2" speed="13.89" length="86.40" shape="98.40,-113.60 98.40,-200.00"/>
    </edge>
    <edge id="s6i" from="15" to="11" priority="-1">