<?xml version="1.0" encoding="UTF-8"?>

<!-- generated on 06/21/20 15:57:53 by Eclipse SUMO netedit Version 1.4.0
<configuration xmlns:xsi="http://www.w3.org/2001/XMLSchema-instance" xsi:noNamespaceSchemaLocation="http://sumo.dlr.de/xsd/netconvertConfiguration.xsd">

    <input>
        <sumo-net-file value="C:\Users\aarda\Sumo\myownmaps\extended\cross2x3.net.xml"/>
    </input>

    <output>
        <output-file value="C:\Users\aarda\Sumo\myownmaps\extended\cross2x3.net.xml"/>
    </output>

    <processing>
        <geometry.min-radius.fix.railways value="false"/>
        <geometry.max-grade.fix value="false"/>
        <offset.disable-normalization value="true"/>
        <lefthand value="false"/>
    </processing>

    <junctions>
        <no-turnarounds value="true"/>
        <junctions.corner-detail value="5"/>
        <junctions.limit-turn-speed value="5.5"/>
        <rectangular-lane-cut value="false"/>
    </junctions>

    <pedestrian>
        <walkingareas value="false"/>
    </pedestrian>

    <report>
        <aggregate-warnings value="5"/>
    </report>

</configuration>
-->

<net version="1.3" junctionCornerDetail="5" limitTurnSpeed="5.50" xmlns:xsi="http://www.w3.org/2001/XMLSchema-instance" xsi:noNamespaceSchemaLocation="http://sumo.dlr.de/xsd/net_file.xsd">

    <location netOffset="0.00,0.00" convBoundary="-100.00,-200.00,300.00,100.00" origBoundary="-10000000000.00,-10000000000.00,10000000000.00,10000000000.00" projParameter="!"/>

    <edge id=":10_0" function="internal">
        <lane id=":10_0_0" index="0" speed="13.89" length="27.20" shape="92.00,-86.40 92.00,-113.60"/>
        <lane id=":10_0_1" index="1" speed="13.89" length="27.20" shape="95.20,-86.40 95.20,-113.60"/>
        <lane id=":10_0_2" index="2" speed="13.89" length="27.20" shape="98.40,-86.40 98.40,-113.60"/>
    </edge>
    <edge id=":10_3" function="internal">
        <lane id=":10_3_0" index="0" speed="13.89" length="27.20" shape="113.60,-92.00 86.40,-92.00"/>
        <lane id=":10_3_1" index="1" speed="13.89" length="27.20" shape="113.60,-95.20 86.40,-95.20"/>
        <lane id=":10_3_2" index="2" speed="13.89" length="27.20" shape="113.60,-98.40 86.40,-98.40"/>
    </edge>
    <edge id=":10_6" function="internal">
        <lane id=":10_6_0" index="0" speed="13.89" length="27.20" shape="108.00,-113.60 108.00,-86.40"/>
        <lane id=":10_6_1" index="1" speed="13.89" length="27.20" shape="104.80,-113.60 104.80,-86.40"/>
        <lane id=":10_6_2" index="2" speed="13.89" length="27.20" shape="101.60,-113.60 101.60,-86.40"/>
    </edge>
    <edge id=":10_9" function="internal">
        <lane id=":10_9_0" index="0" speed="13.89" length="27.20" shape="86.40,-108.00 113.60,-108.00"/>
        <lane id=":10_9_1" index="1" speed="13.89" length="27.20" shape="86.40,-104.80 113.60,-104.80"/>
        <lane id=":10_9_2" index="2" speed="13.89" length="27.20" shape="86.40,-101.60 113.60,-101.60"/>
    </edge>
    <edge id=":11_0" function="internal">
        <lane id=":11_0_0" index="0" speed="13.89" length="27.20" shape="192.00,-86.40 192.00,-113.60"/>
        <lane id=":11_0_1" index="1" speed="13.89" length="27.20" shape="195.20,-86.40 195.20,-113.60"/>
        <lane id=":11_0_2" index="2" speed="13.89" length="27.20" shape="198.40,-86.40 198.40,-113.60"/>
    </edge>
    <edge id=":11_3" function="internal">
        <lane id=":11_3_0" index="0" speed="13.89" length="27.20" shape="213.60,-92.00 186.40,-92.00"/>
        <lane id=":11_3_1" index="1" speed="13.89" length="27.20" shape="213.60,-95.20 186.40,-95.20"/>
        <lane id=":11_3_2" index="2" speed="13.89" length="27.20" shape="213.60,-98.40 186.40,-98.40"/>
    </edge>
    <edge id=":11_6" function="internal">
        <lane id=":11_6_0" index="0" speed="13.89" length="27.20" shape="208.00,-113.60 208.00,-86.40"/>
        <lane id=":11_6_1" index="1" speed="13.89" length="27.20" shape="204.80,-113.60 204.80,-86.40"/>
        <lane id=":11_6_2" index="2" speed="13.89" length="27.20" shape="201.60,-113.60 201.60,-86.40"/>
    </edge>
    <edge id=":11_9" function="internal">
        <lane id=":11_9_0" index="0" speed="13.89" length="27.20" shape="186.40,-108.00 213.60,-108.00"/>
        <lane id=":11_9_1" index="1" speed="13.89" length="27.20" shape="186.40,-104.80 213.60,-104.80"/>
        <lane id=":11_9_2" index="2" speed="13.89" length="27.20" shape="186.40,-101.60 213.60,-101.60"/>
    </edge>
    <edge id=":4_0" function="internal">
        <lane id=":4_0_0" index="0" speed="13.89" length="27.20" shape="-8.00,13.60 -8.00,-13.60"/>
        <lane id=":4_0_1" index="1" speed="13.89" length="27.20" shape="-4.80,13.60 -4.80,-13.60"/>
        <lane id=":4_0_2" index="2" speed="13.89" length="27.20" shape="-1.60,13.60 -1.60,-13.60"/>
    </edge>
    <edge id=":4_3" function="internal">
        <lane id=":4_3_0" index="0" speed="13.89" length="27.20" shape="13.60,8.00 -13.60,8.00"/>
        <lane id=":4_3_1" index="1" speed="13.89" length="27.20" shape="13.60,4.80 -13.60,4.80"/>
        <lane id=":4_3_2" index="2" speed="13.89" length="27.20" shape="13.60,1.60 -13.60,1.60"/>
    </edge>
    <edge id=":4_6" function="internal">
        <lane id=":4_6_0" index="0" speed="13.89" length="27.20" shape="8.00,-13.60 8.00,13.60"/>
        <lane id=":4_6_1" index="1" speed="13.89" length="27.20" shape="4.80,-13.60 4.80,13.60"/>
        <lane id=":4_6_2" index="2" speed="13.89" length="27.20" shape="1.60,-13.60 1.60,13.60"/>
    </edge>
    <edge id=":4_9" function="internal">
        <lane id=":4_9_0" index="0" speed="13.89" length="27.20" shape="-13.60,-8.00 13.60,-8.00"/>
        <lane id=":4_9_1" index="1" speed="13.89" length="27.20" shape="-13.60,-4.80 13.60,-4.80"/>
        <lane id=":4_9_2" index="2" speed="13.89" length="27.20" shape="-13.60,-1.60 13.60,-1.60"/>
    </edge>
    <edge id=":5_0" function="internal">
        <lane id=":5_0_0" index="0" speed="13.89" length="27.20" shape="92.00,13.60 92.00,-13.60"/>
        <lane id=":5_0_1" index="1" speed="13.89" length="27.20" shape="95.20,13.60 95.20,-13.60"/>
        <lane id=":5_0_2" index="2" speed="13.89" length="27.20" shape="98.40,13.60 98.40,-13.60"/>
    </edge>
    <edge id=":5_3" function="internal">
        <lane id=":5_3_0" index="0" speed="13.89" length="27.20" shape="113.60,8.00 86.40,8.00"/>
        <lane id=":5_3_1" index="1" speed="13.89" length="27.20" shape="113.60,4.80 86.40,4.80"/>
        <lane id=":5_3_2" index="2" speed="13.89" length="27.20" shape="113.60,1.60 86.40,1.60"/>
    </edge>
    <edge id=":5_6" function="internal">
        <lane id=":5_6_0" index="0" speed="13.89" length="27.20" shape="108.00,-13.60 108.00,13.60"/>
        <lane id=":5_6_1" index="1" speed="13.89" length="27.20" shape="104.80,-13.60 104.80,13.60"/>
        <lane id=":5_6_2" index="2" speed="13.89" length="27.20" shape="101.60,-13.60 101.60,13.60"/>
    </edge>
    <edge id=":5_9" function="internal">
        <lane id=":5_9_0" index="0" speed="13.89" length="27.20" shape="86.40,-8.00 113.60,-8.00"/>
        <lane id=":5_9_1" index="1" speed="13.89" length="27.20" shape="86.40,-4.80 113.60,-4.80"/>
        <lane id=":5_9_2" index="2" speed="13.89" length="27.20" shape="86.40,-1.60 113.60,-1.60"/>
    </edge>
    <edge id=":6_0" function="internal">
        <lane id=":6_0_0" index="0" speed="13.89" length="27.20" shape="192.00,13.60 192.00,-13.60"/>
        <lane id=":6_0_1" index="1" speed="13.89" length="27.20" shape="195.20,13.60 195.20,-13.60"/>
        <lane id=":6_0_2" index="2" speed="13.89" length="27.20" shape="198.40,13.60 198.40,-13.60"/>
    </edge>
    <edge id=":6_3" function="internal">
        <lane id=":6_3_0" index="0" speed="13.89" length="27.20" shape="213.60,8.00 186.40,8.00"/>
        <lane id=":6_3_1" index="1" speed="13.89" length="27.20" shape="213.60,4.80 186.40,4.80"/>
        <lane id=":6_3_2" index="2" speed="13.89" length="27.20" shape="213.60,1.60 186.40,1.60"/>
    </edge>
    <edge id=":6_6" function="internal">
        <lane id=":6_6_0" index="0" speed="13.89" length="27.20" shape="208.00,-13.60 208.00,13.60"/>
        <lane id=":6_6_1" index="1" speed="13.89" length="27.20" shape="204.80,-13.60 204.80,13.60"/>
        <lane id=":6_6_2" index="2" speed="13.89" length="27.20" shape="201.60,-13.60 201.60,13.60"/>
    </edge>
    <edge id=":6_9" function="internal">
        <lane id=":6_9_0" index="0" speed="13.89" length="27.20" shape="186.40,-8.00 213.60,-8.00"/>
        <lane id=":6_9_1" index="1" speed="13.89" length="27.20" shape="186.40,-4.80 213.60,-4.80"/>
        <lane id=":6_9_2" index="2" speed="13.89" length="27.20" shape="186.40,-1.60 213.60,-1.60"/>
    </edge>
    <edge id=":9_0" function="internal">
        <lane id=":9_0_0" index="0" speed="13.89" length="27.20" shape="-8.00,-86.40 -8.00,-113.60"/>
        <lane id=":9_0_1" index="1" speed="13.89" length="27.20" shape="-4.80,-86.40 -4.80,-113.60"/>
        <lane id=":9_0_2" index="2" speed="13.89" length="27.20" shape="-1.60,-86.40 -1.60,-113.60"/>
    </edge>
    <edge id=":9_3" function="internal">
        <lane id=":9_3_0" index="0" speed="13.89" length="27.20" shape="13.60,-92.00 -13.60,-92.00"/>
        <lane id=":9_3_1" index="1" speed="13.89" length="27.20" shape="13.60,-95.20 -13.60,-95.20"/>
        <lane id=":9_3_2" index="2" speed="13.89" length="27.20" shape="13.60,-98.40 -13.60,-98.40"/>
    </edge>
    <edge id=":9_6" function="internal">
        <lane id=":9_6_0" index="0" speed="13.89" length="27.20" shape="8.00,-113.60 8.00,-86.40"/>
        <lane id=":9_6_1" index="1" speed="13.89" length="27.20" shape="4.80,-113.60 4.80,-86.40"/>
        <lane id=":9_6_2" index="2" speed="13.89" length="27.20" shape="1.60,-113.60 1.60,-86.40"/>
    </edge>
    <edge id=":9_9" function="internal">
        <lane id=":9_9_0" index="0" speed="13.89" length="27.20" shape="-13.60,-108.00 13.60,-108.00"/>
        <lane id=":9_9_1" index="1" speed="13.89" length="27.20" shape="-13.60,-104.80 13.60,-104.80"/>
        <lane id=":9_9_2" index="2" speed="13.89" length="27.20" shape="-13.60,-101.60 13.60,-101.60"/>
    </edge>

    <edge id="e1i" from="5" to="4" priority="-1">
        <lane id="e1i_0" index="0" speed="13.89" length="72.80" shape="86.40,8.00 13.60,8.00"/>
        <lane id="e1i_1" index="1" speed="13.89" length="72.80" shape="86.40,4.80 13.60,4.80"/>
        <lane id="e1i_2" index="2" speed="13.89" length="72.80" shape="86.40,1.60 13.60,1.60"/>
    </edge>
    <edge id="e2i" from="6" to="5" priority="-1">
        <lane id="e2i_0" index="0" speed="13.89" length="72.80" shape="186.40,8.00 113.60,8.00"/>
        <lane id="e2i_1" index="1" speed="13.89" length="72.80" shape="186.40,4.80 113.60,4.80"/>
        <lane id="e2i_2" index="2" speed="13.89" length="72.80" shape="186.40,1.60 113.60,1.60"/>
    </edge>
    <edge id="e3i" from="7" to="6" priority="-1">
        <lane id="e3i_0" index="0" speed="13.89" length="86.40" shape="300.00,8.00 213.60,8.00"/>
        <lane id="e3i_1" index="1" speed="13.89" length="86.40" shape="300.00,4.80 213.60,4.80"/>
        <lane id="e3i_2" index="2" speed="13.89" length="86.40" shape="300.00,1.60 213.60,1.60"/>
    </edge>
    <edge id="e3o" from="6" to="7" priority="-1">
        <lane id="e3o_0" index="0" speed="13.89" length="86.40" shape="213.60,-8.00 300.00,-8.00"/>
        <lane id="e3o_1" index="1" speed="13.89" length="86.40" shape="213.60,-4.80 300.00,-4.80"/>
        <lane id="e3o_2" index="2" speed="13.89" length="86.40" shape="213.60,-1.60 300.00,-1.60"/>
    </edge>
    <edge id="e4i" from="10" to="9" priority="-1">
        <lane id="e4i_0" index="0" speed="13.89" length="72.80" shape="86.40,-92.00 13.60,-92.00"/>
        <lane id="e4i_1" index="1" speed="13.89" length="72.80" shape="86.40,-95.20 13.60,-95.20"/>
        <lane id="e4i_2" index="2" speed="13.89" length="72.80" shape="86.40,-98.40 13.60,-98.40"/>
    </edge>
    <edge id="e5i" from="11" to="10" priority="-1">
        <lane id="e5i_0" index="0" speed="13.89" length="72.80" shape="186.40,-92.00 113.60,-92.00"/>
        <lane id="e5i_1" index="1" speed="13.89" length="72.80" shape="186.40,-95.20 113.60,-95.20"/>
        <lane id="e5i_2" index="2" speed="13.89" length="72.80" shape="186.40,-98.40 113.60,-98.40"/>
    </edge>
    <edge id="e6i" from="12" to="11" priority="-1">
        <lane id="e6i_0" index="0" speed="13.89" length="86.40" shape="300.00,-92.00 213.60,-92.00"/>
        <lane id="e6i_1" index="1" speed="13.89" length="86.40" shape="300.00,-95.20 213.60,-95.20"/>
        <lane id="e6i_2" index="2" speed="13.89" length="86.40" shape="300.00,-98.40 213.60,-98.40"/>
    </edge>
    <edge id="e6o" from="11" to="12" priority="-1">
        <lane id="e6o_0" index="0" speed="13.89" length="86.40" shape="213.60,-108.00 300.00,-108.00"/>
        <lane id="e6o_1" index="1" speed="13.89" length="86.40" shape="213.60,-104.80 300.00,-104.80"/>
        <lane id="e6o_2" index="2" speed="13.89" length="86.40" shape="213.60,-101.60 300.00,-101.60"/>
    </edge>
    <edge id="n1i" from="0" to="4" priority="-1">
        <lane id="n1i_0" index="0" speed="13.89" length="86.40" shape="-8.00,100.00 -8.00,13.60"/>
        <lane id="n1i_1" index="1" speed="13.89" length="86.40" shape="-4.80,100.00 -4.80,13.60"/>
        <lane id="n1i_2" index="2" speed="13.89" length="86.40" shape="-1.60,100.00 -1.60,13.60"/>
    </edge>
    <edge id="n1o" from="4" to="0" priority="-1">
        <lane id="n1o_0" index="0" speed="13.89" length="86.40" shape="8.00,13.60 8.00,100.00"/>
        <lane id="n1o_1" index="1" speed="13.89" length="86.40" shape="4.80,13.60 4.80,100.00"/>
        <lane id="n1o_2" index="2" speed="13.89" length="86.40" shape="1.60,13.60 1.60,100.00"/>
    </edge>
    <edge id="n2i" from="1" to="5" priority="-1">
        <lane id="n2i_0" index="0" speed="13.89" length="86.40" shape="92.00,100.00 92.00,13.60"/>
        <lane id="n2i_1" index="1" speed="13.89" length="86.40" shape="95.20,100.00 95.20,13.60"/>
        <lane id="n2i_2" index="2" speed="13.89" length="86.40" shape="98.40,100.00 98.40,13.60"/>
    </edge>
    <edge id="n2o" from="5" to="1" priority="-1">
        <lane id="n2o_0" index="0" speed="13.89" length="86.40" shape="108.00,13.60 108.00,100.00"/>
        <lane id="n2o_1" index="1" speed="13.89" length="86.40" shape="104.80,13.60 104.80,100.00"/>
        <lane id="n2o_2" index="2" speed="13.89" length="86.40" shape="101.60,13.60 101.60,100.00"/>
    </edge>
    <edge id="n3i" from="2" to="6" priority="-1">
        <lane id="n3i_0" index="0" speed="13.89" length="86.40" shape="192.00,100.00 192.00,13.60"/>
        <lane id="n3i_1" index="1" speed="13.89" length="86.40" shape="195.20,100.00 195.20,13.60"/>
        <lane id="n3i_2" index="2" speed="13.89" length="86.40" shape="198.40,100.00 198.40,13.60"/>
    </edge>
    <edge id="n3o" from="6" to="2" priority="-1">
        <lane id="n3o_0" index="0" speed="13.89" length="86.40" shape="208.00,13.60 208.00,100.00"/>
        <lane id="n3o_1" index="1" speed="13.89" length="86.40" shape="204.80,13.60 204.80,100.00"/>
        <lane id="n3o_2" index="2" speed="13.89" length="86.40" shape="201.60,13.60 201.60,100.00"/>
    </edge>
    <edge id="n4i" from="4" to="9" priority="-1">
        <lane id="n4i_0" index="0" speed="13.89" length="72.80" shape="-8.00,-13.60 -8.00,-86.40"/>
        <lane id="n4i_1" index="1" speed="13.89" length="72.80" shape="-4.80,-13.60 -4.80,-86.40"/>
        <lane id="n4i_2" index="2" speed="13.89" length="72.80" shape="-1.60,-13.60 -1.60,-86.40"/>
    </edge>
    <edge id="n5i" from="5" to="10" priority="-1">
        <lane id="n5i_0" index="0" speed="13.89" length="72.80" shape="92.00,-13.60 92.00,-86.40"/>
        <lane id="n5i_1" index="1" speed="13.89" length="72.80" shape="95.20,-13.60 95.20,-86.40"/>
        <lane id="n5i_2" index="2" speed="13.89" length="72.80" shape="98.40,-13.60 98.40,-86.40"/>
    </edge>
    <edge id="n6i" from="6" to="11" priority="-1">
        <lane id="n6i_0" index="0" speed="13.89" length="72.80" shape="192.00,-13.60 192.00,-86.40"/>
        <lane id="n6i_1" index="1" speed="13.89" length="72.80" shape="195.20,-13.60 195.20,-86.40"/>
        <lane id="n6i_2" index="2" speed="13.89" length="72.80" shape="198.40,-13.60 198.40,-86.40"/>
    </edge>
    <edge id="s1i" from="9" to="4" priority="-1">
        <lane id="s1i_0" index="0" speed="13.89" length="72.80" shape="8.00,-86.40 8.00,-13.60"/>
        <lane id="s1i_1" index="1" speed="13.89" length="72.80" shape="4.80,-86.40 4.80,-13.60"/>
        <lane id="s1i_2" index="2" speed="13.89" length="72.80" shape="1.60,-86.40 1.60,-13.60"/>
    </edge>
    <edge id="s2i" from="10" to="5" priority="-1">
        <lane id="s2i_0" index="0" speed="13.89" length="72.80" shape="108.00,-86.40 108.00,-13.60"/>
        <lane id="s2i_1" index="1" speed="13.89" length="72.80" shape="104.80,-86.40 104.80,-13.60"/>
        <lane id="s2i_2" index="2" speed="13.89" length="72.80" shape="101.60,-86.40 101.60,-13.60"/>
    </edge>
    <edge id="s3i" from="11" to="6" priority="-1">
        <lane id="s3i_0" index="0" speed="13.89" length="72.80" shape="208.00,-86.40 208.00,-13.60"/>
        <lane id="s3i_1" index="1" speed="13.89" length="72.80" shape="204.80,-86.40 204.80,-13.60"/>
        <lane id="s3i_2" index="2" speed="13.89" length="72.80" shape="201.60,-86.40 201.60,-13.60"/>
    </edge>
    <edge id="s4i" from="13" to="9" priority="-1">
        <lane id="s4i_0" index="0" speed="13.89" length="86.40" shape="8.00,-200.00 8.00,-113.60"/>
        <lane id="s4i_1" index="1" speed="13.89" length="86.40" shape="4.80,-200.00 4.80,-113.60"/>
        <lane id="s4i_2" index="2" speed="13.89" length="86.40" shape="1.60,-200.00 1.60,-113.60"/>
    </edge>
    <edge id="s4o" from="9" to="13" priority="-1">
        <lane id="s4o_0" index="0" speed="13.89" length="86.40" shape="-8.00,-113.60 -8.00,-200.00"/>
        <lane id="s4o_1" index="1" speed="13.89" length="86.40" shape="-4.80,-113.60 -4.80,-200.00"/>
        <lane id="s4o_2" index="2" speed="13.89" length="86.40" shape="-1.60,-113.60 -1.60,-200.00"/>
    </edge>
    <edge id="s5i" from="14" to="10" priority="-1">
        <lane id="s5i_0" index="0" speed="13.89" length="86.40" shape="108.00,-200.00 108.00,-113.60"/>
        <lane id="s5i_1" index="1" speed="13.89" length="86.40" shape="104.80,-200.00 104.80,-113.60"/>
        <lane id="s5i_2" index="2" speed="13.89" length="86.40" shape="101.60,-200.00 101.60,-113.60"/>
    </edge>
    <edge id="s5o" from="10" to="14" priority="-1">
        <lane id="s5o_0" index="0" speed="13.89" length="86.40" shape="92.00,-113.60 92.00,-200.00"/>
        <lane id="s5o_1" index="1" speed="13.89" length="86.40" shape="95.20,-113.60 95.20,-200.00"/>
        <lane id="s5o_2" index="2" speed="13.89" length="86.40" shape="98.40,-113.60 98.40,-200.00"/>
    </edge>
    <edge id="s6i" from="15" to="11" priority="-1">
        <lane id="s6i_0" index="0" speed="13.89" length="86.40" shape="208.00,-200.00 208.00,-113.60"/>
        <lane id="s6i_1" index="1" speed="13.89" length="86.40" shape="204.80,-200.00 204.80,-113.60"/>
        <lane id="s6i_2" index="2" speed="13.89" length="86.40" shape="201.60,-200.00 201.60,-113.60"/>
    </edge>
    <edge id="s6o" from="11" to="15" priority="-1">
        <lane id="s6o_0" index="0" speed="13.89" length="86.40" shape="192.00,-113.60 192.00,-200.00"/>
        <lane id="s6o_1" index="1" speed="13.89" length="86.40" shape="195.20,-113.60 195.20,-200.00"/>
        <lane id="s6o_2" index="2" speed="13.89" length="86.40" shape="198.40,-113.60 198.40,-200.00"/>
    </edge>
    <edge id="w1i" from="3" to="4" priority="-1">
        <lane id="w1i_0" index="0" speed="13.89" length="86.40" shape="-100.00,-8.00 -13.60,-8.00"/>
        <lane id="w1i_1" index="1" speed="13.89" length="86.40" shape="-100.00,-4.80 -13.60,-4.80"/>
        <lane id="w1i_2" index="2" speed="13.89" length="86.40" shape="-100.00,-1.60 -13.60,-1.60"/>
    </edge>
    <edge id="w1o" from="4" to="3" priority="-1">
        <lane id="w1o_0" index="0" speed="13.89" length="86.40" shape="-13.60,8.00 -100.00,8.00"/>
        <lane id="w1o_1" index="1" speed="13.89" length="86.40" shape="-13.60,4.80 -100.00,4.80"/>
        <lane id="w1o_2" index="2" speed="13.89" length="86.40" shape="-13.60,1.60 -100.00,1.60"/>
    </edge>
    <edge id="w2i" from="4" to="5" priority="-1">
        <lane id="w2i_0" index="0" speed="13.89" length="72.80" shape="13.60,-8.00 86.40,-8.00"/>
        <lane id="w2i_1" index="1" speed="13.89" length="72.80" shape="13.60,-4.80 86.40,-4.80"/>
        <lane id="w2i_2" index="2" speed="13.89" length="72.80" shape="13.60,-1.60 86.40,-1.60"/>
    </edge>
    <edge id="w3i" from="5" to="6" priority="-1">
        <lane id="w3i_0" index="0" speed="13.89" length="72.80" shape="113.60,-8.00 186.40,-8.00"/>
        <lane id="w3i_1" index="1" speed="13.89" length="72.80" shape="113.60,-4.80 186.40,-4.80"/>
        <lane id="w3i_2" index="2" speed="13.89" length="72.80" shape="113.60,-1.60 186.40,-1.60"/>
    </edge>
    <edge id="w4i" from="8" to="9" priority="-1">
        <lane id="w4i_0" index="0" speed="13.89" length="86.40" shape="-100.00,-108.00 -13.60,-108.00"/>
        <lane id="w4i_1" index="1" speed="13.89" length="86.40" shape="-100.00,-104.80 -13.60,-104.80"/>
        <lane id="w4i_2" index="2" speed="13.89" length="86.40" shape="-100.00,-101.60 -13.60,-101.60"/>
    </edge>
    <edge id="w4o" from="9" to="8" priority="-1">
        <lane id="w4o_0" index="0" speed="13.89" length="86.40" shape="-13.60,-92.00 -100.00,-92.00"/>
        <lane id="w4o_1" index="1" speed="13.89" length="86.40" shape="-13.60,-95.20 -100.00,-95.20"/>
        <lane id="w4o_2" index="2" speed="13.89" length="86.40" shape="-13.60,-98.40 -100.00,-98.40"/>
    </edge>
    <edge id="w5i" from="9" to="10" priority="-1">
        <lane id="w5i_0" index="0" speed="13.89" length="72.80" shape="13.60,-108.00 86.40,-108.00"/>
        <lane id="w5i_1" index="1" speed="13.89" length="72.80" shape="13.60,-104.80 86.40,-104.80"/>
        <lane id="w5i_2" index="2" speed="13.89" length="72.80" shape="13.60,-101.60 86.40,-101.60"/>
    </edge>
    <edge id="w6i" from="10" to="11" priority="-1">
        <lane id="w6i_0" index="0" speed="13.89" length="72.80" shape="113.60,-108.00 186.40,-108.00"/>
        <lane id="w6i_1" index="1" speed="13.89" length="72.80" shape="113.60,-104.80 186.40,-104.80"/>
        <lane id="w6i_2" index="2" speed="13.89" length="72.80" shape="113.60,-101.60 186.40,-101.60"/>
    </edge>

    <tlLogic id="3" type="static" programID="0" offset="0">
        <phase duration="42" state="GGGrrrGGGrrr"/>
        <phase duration="4"  state="yyyrrryyyrrr"/>
        <phase duration="42" state="rrrGGGrrrGGG"/>
        <phase duration="4"  state="rrryyyrrryyy"/>
    </tlLogic>
    <tlLogic id="4" type="static" programID="0" offset="0">
        <phase duration="42" state="GGGrrrGGGrrr"/>
        <phase duration="4"  state="yyyrrryyyrrr"/>
        <phase duration="42" state="rrrGGGrrrGGG"/>
        <phase duration="4"  state="rrryyyrrryyy"/>
    </tlLogic>
    <tlLogic id="5" type="static" programID="0" offset="0">
        <phase duration="42" state="GGGGgrrrrrGGGGgrrrrr"/>
        <phase duration="4"  state="yyyyyrrrrryyyyyrrrrr"/>
        <phase duration="42" state="rrrrrGGGGgrrrrrGGGGg"/>
        <phase duration="4"  state="rrrrryyyyyrrrrryyyyy"/>
    </tlLogic>
    <tlLogic id="7" type="static" programID="0" offset="0">
        <phase duration="42" state="GGGrrrGGGrrr"/>
        <phase duration="4"  state="yyyrrryyyrrr"/>
        <phase duration="42" state="rrrGGGrrrGGG"/>
        <phase duration="4"  state="rrryyyrrryyy"/>
    </tlLogic>
    <tlLogic id="8" type="static" programID="0" offset="0">
        <phase duration="42" state="GGGrrrGGGrrr"/>
        <phase duration="4"  state="yyyrrryyyrrr"/>
        <phase duration="42" state="rrrGGGrrrGGG"/>
        <phase duration="4"  state="rrryyyrrryyy"/>
    </tlLogic>
    <tlLogic id="9" type="static" programID="0" offset="0">
        <phase duration="42" state="GGGGgrrrrrGGGGgrrrrr"/>
        <phase duration="4"  state="yyyyyrrrrryyyyyrrrrr"/>
        <phase duration="42" state="rrrrrGGGGgrrrrrGGGGg"/>
        <phase duration="4"  state="rrrrryyyyyrrrrryyyyy"/>
    </tlLogic>

    <junction id="0" type="dead_end" x="0.00" y="100.00" incLanes="n1o_0 n1o_1 n1o_2" intLanes="" shape="0.00,100.00 9.60,100.00 0.00,100.00"/>
    <junction id="1" type="dead_end" x="100.00" y="100.00" incLanes="n2o_0 n2o_1 n2o_2" intLanes="" shape="100.00,100.00 109.60,100.00 100.00,100.00"/>
    <junction id="10" type="traffic_light" x="100.00" y="-100.00" incLanes="n5i_0 n5i_1 n5i_2 e5i_0 e5i_1 e5i_2 s5i_0 s5i_1 s5i_2 w5i_0 w5i_1 w5i_2" intLanes=":10_0_0 :10_0_1 :10_0_2 :10_3_0 :10_3_1 :10_3_2 :10_6_0 :10_6_1 :10_6_2 :10_9_0 :10_9_1 :10_9_2" shape="90.40,-86.40 109.60,-86.40 110.04,-88.62 110.60,-89.40 111.38,-89.96 112.38,-90.29 113.60,-90.40 113.60,-109.60 111.38,-110.04 110.60,-110.60 110.04,-111.38 109.71,-112.38 109.60,-113.60 90.40,-113.60 89.96,-111.38 89.40,-110.60 88.62,-110.04 87.62,-109.71 86.40,-109.60 86.40,-90.40 88.62,-89.96 89.40,-89.40 89.96,-88.62 90.29,-87.62">
        <request index="0"  response="000000000000" foes="111000111000" cont="0"/>
        <request index="1"  response="000000000000" foes="111000111000" cont="0"/>
        <request index="2"  response="000000000000" foes="111000111000" cont="0"/>
        <request index="3"  response="000111000111" foes="000111000111" cont="0"/>
        <request index="4"  response="000000000000" foes="000111000111" cont="0"/>
        <request index="5"  response="000111000111" foes="000111000111" cont="0"/>
        <request index="6"  response="000000000000" foes="111000111000" cont="0"/>
        <request index="7"  response="000000000000" foes="111000111000" cont="0"/>
        <request index="8"  response="000000000000" foes="111000111000" cont="0"/>
        <request index="9"  response="000111000111" foes="000111000111" cont="0"/>
        <request index="10" response="000111000111" foes="000111000111" cont="0"/>
        <request index="11" response="000111000111" foes="000111000111" cont="0"/>
    </junction>
    <junction id="11" type="traffic_light" x="200.00" y="-100.00" incLanes="n6i_0 n6i_1 n6i_2 e6i_0 e6i_1 e6i_2 s6i_0 s6i_1 s6i_2 w6i_0 w6i_1 w6i_2" intLanes=":11_0_0 :11_0_1 :11_0_2 :11_3_0 :11_3_1 :11_3_2 :11_6_0 :11_6_1 :11_6_2 :11_9_0 :11_9_1 :11_9_2" shape="190.40,-86.40 209.60,-86.40 210.04,-88.62 210.60,-89.40 211.38,-89.96 212.38,-90.29 213.60,-90.40 213.60,-109.60 211.38,-110.04 210.60,-110.60 210.04,-111.38 209.71,-112.38 209.60,-113.60 190.40,-113.60 189.96,-111.38 189.40,-110.60 188.62,-110.04 187.62,-109.71 186.40,-109.60 186.40,-90.40 188.62,-89.96 189.40,-89.40 189.96,-88.62 190.29,-87.62">
        <request index="0"  response="000000000000" foes="111000111000" cont="0"/>
        <request index="1"  response="000000000000" foes="111000111000" cont="0"/>
        <request index="2"  response="000000000000" foes="111000111000" cont="0"/>
        <request index="3"  response="000111000111" foes="000111000111" cont="0"/>
        <request index="4"  response="000111000111" foes="000111000111" cont="0"/>
        <request index="5"  response="000111000111" foes="000111000111" cont="0"/>
        <request index="6"  response="000000000000" foes="111000111000" cont="0"/>
        <request index="7"  response="000000000000" foes="111000111000" cont="0"/>
        <request index="8"  response="000000000000" foes="111000111000" cont="0"/>
        <request index="9"  response="000111000111" foes="000111000111" cont="0"/>
        <request index="10" response="000111000111" foes="000111000111" cont="0"/>
        <request index="11" response="000111000111" foes="000111000111" cont="0"/>
    </junction>
    <junction id="12" type="dead_end" x="300.00" y="-100.00" incLanes="e6o_0 e6o_1 e6o_2" intLanes="" shape="300.00,-100.00 300.00,-109.60 300.00,-100.00"/>
    <junction id="13" type="dead_end" x="0.00" y="-200.00" incLanes="s4o_0 s4o_1 s4o_2" intLanes="" shape="0.00,-200.00 -9.60,-200.00 0.00,-200.00"/>
    <junction id="14" type="dead_end" x="100.00" y="-200.00" incLanes="s5o_0 s5o_1 s5o_2" intLanes="" shape="100.00,-200.00 90.40,-200.00 100.00,-200.00"/>
    <junction id="15" type="dead_end" x="200.00" y="-200.00" incLanes="s6o_0 s6o_1 s6o_2" intLanes="" shape="200.00,-200.00 190.40,-200.00 200.00,-200.00"/>
    <junction id="2" type="dead_end" x="200.00" y="100.00" incLanes="n3o_0 n3o_1 n3o_2" intLanes="" shape="200.00,100.00 209.60,100.00 200.00,100.00"/>
    <junction id="3" type="dead_end" x="-100.00" y="0.00" incLanes="w1o_0 w1o_1 w1o_2" intLanes="" shape="-100.00,0.00 -100.00,9.60 -100.00,0.00"/>
    <junction id="4" type="traffic_light" x="0.00" y="0.00" incLanes="n1i_0 n1i_1 n1i_2 e1i_0 e1i_1 e1i_2 s1i_0 s1i_1 s1i_2 w1i_0 w1i_1 w1i_2" intLanes=":4_0_0 :4_0_1 :4_0_2 :4_3_0 :4_3_1 :4_3_2 :4_6_0 :4_6_1 :4_6_2 :4_9_0 :4_9_1 :4_9_2" shape="-9.60,13.60 9.60,13.60 10.04,11.38 10.60,10.60 11.38,10.04 12.38,9.71 13.60,9.60 13.60,-9.60 11.38,-10.04 10.60,-10.60 10.04,-11.38 9.71,-12.38 9.60,-13.60 -9.60,-13.60 -10.04,-11.38 -10.60,-10.60 -11.38,-10.04 -12.38,-9.71 -13.60,-9.60 -13.60,9.60 -11.38,10.04 -10.60,10.60 -10.04,11.38 -9.71,12.38">
        <request index="0"  response="000000000000" foes="111000111000" cont="0"/>
        <request index="1"  response="000000000000" foes="111000111000" cont="0"/>
        <request index="2"  response="000000000000" foes="111000111000" cont="0"/>