<?xml version="1.0" encoding="UTF-8"?>

<!-- generated on 06/04/20 17:46:40 by Eclipse SUMO netedit Version 1.4.0
<configuration xmlns:xsi="http://www.w3.org/2001/XMLSchema-instance" xsi:noNamespaceSchemaLocation="http://sumo.dlr.de/xsd/netconvertConfiguration.xsd">

    <input>
        <sumo-net-file value="C:\Users\aarda\Sumo\myownmaps\extended\cross2x2.net.xml"/>
    </input>

    <output>
        <output-file value="C:\Users\aarda\Sumo\myownmaps\extended\cross2x2.net.xml"/>
    </output>

    <processing>
        <geometry.min-radius.fix.railways value="false"/>
        <geometry.max-grade.fix value="false"/>
        <offset.disable-normalization value="true"/>
        <lefthand value="false"/>
    </processing>

    <junctions>
        <no-turnarounds value="true"/>
        <junctions.corner-detail value="5"/>
        <junctions.limit-turn-speed value="5.5"/>
        <rectangular-lane-cut value="false"/>
    </junctions>

    <pedestrian>
        <walkingareas value="false"/>
    </pedestrian>

    <report>
        <aggregate-warnings value="5"/>
    </report>

</configuration>
-->

<net version="1.3" junctionCornerDetail="5" limitTurnSpeed="5.50" xmlns:xsi="http://www.w3.org/2001/XMLSchema-instance" xsi:noNamespaceSchemaLocation="http://sumo.dlr.de/xsd/net_file.xsd">

    <location netOffset="0.00,0.00" convBoundary="-100.00,-200.00,200.00,100.00" origBoundary="-10000000000.00,-10000000000.00,10000000000.00,10000000000.00" projParameter="!"/>

    <edge id=":3_0" function="internal">
        <lane id=":3_0_0" index="0" speed="6.51" length="9.03" shape="-8.00,13.60 -8.35,11.15 -9.40,9.40 -11.15,8.35 -13.60,8.00"/>
    </edge>
    <edge id=":3_1" function="internal">
        <lane id=":3_1_0" index="0" speed="13.89" length="27.20" shape="-4.80,13.60 -4.80,-13.60"/>
        <lane id=":3_1_1" index="1" speed="13.89" length="27.20" shape="-1.60,13.60 -1.60,-13.60"/>
    </edge>
    <edge id=":3_3" function="internal">
        <lane id=":3_3_0" index="0" speed="10.36" length="7.98" shape="-1.60,13.60 -0.65,6.95 -0.00,5.87"/>
    </edge>
    <edge id=":3_16" function="internal">
        <lane id=":3_16_0" index="0" speed="10.36" length="16.53" shape="-0.00,5.87 2.20,2.20 6.95,-0.65 13.60,-1.60"/>
    </edge>
    <edge id=":3_4" function="internal">
        <lane id=":3_4_0" index="0" speed="6.51" length="9.03" shape="13.60,8.00 11.15,8.35 9.40,9.40 8.35,11.15 8.00,13.60"/>
    </edge>
    <edge id=":3_5" function="internal">
        <lane id=":3_5_0" index="0" speed="13.89" length="27.20" shape="13.60,4.80 -13.60,4.80"/>
        <lane id=":3_5_1" index="1" speed="13.89" length="27.20" shape="13.60,1.60 -13.60,1.60"/>
    </edge>
    <edge id=":3_7" function="internal">
        <lane id=":3_7_0" index="0" speed="10.36" length="7.98" shape="13.60,1.60 6.95,0.65 5.87,0.00"/>
    </edge>
    <edge id=":3_17" function="internal">
        <lane id=":3_17_0" index="0" speed="10.36" length="16.53" shape="5.87,0.00 2.20,-2.20 -0.65,-6.95 -1.60,-13.60"/>
    </edge>
    <edge id=":3_8" function="internal">
        <lane id=":3_8_0" index="0" speed="6.51" length="9.03" shape="8.00,-13.60 8.35,-11.15 9.40,-9.40 11.15,-8.35 13.60,-8.00"/>
    </edge>
    <edge id=":3_9" function="internal">
        <lane id=":3_9_0" index="0" speed="13.89" length="27.20" shape="4.80,-13.60 4.80,13.60"/>
        <lane id=":3_9_1" index="1" speed="13.89" length="27.20" shape="1.60,-13.60 1.60,13.60"/>
    </edge>
    <edge id=":3_11" function="internal">
        <lane id=":3_11_0" index="0" speed="10.36" length="7.98" shape="1.60,-13.60 0.65,-6.95 0.00,-5.87"/>
    </edge>
    <edge id=":3_18" function="internal">
        <lane id=":3_18_0" index="0" speed="10.36" length="16.53" shape="0.00,-5.87 -2.20,-2.20 -6.95,0.65 -13.60,1.60"/>
    </edge>
    <edge id=":3_12" function="internal">
        <lane id=":3_12_0" index="0" speed="6.51" length="9.03" shape="-13.60,-8.00 -11.15,-8.35 -9.40,-9.40 -8.35,-11.15 -8.00,-13.60"/>
    </edge>
    <edge id=":3_13" function="internal">
        <lane id=":3_13_0" index="0" speed="13.89" length="27.20" shape="-13.60,-4.80 13.60,-4.80"/>
        <lane id=":3_13_1" index="1" speed="13.89" length="27.20" shape="-13.60,-1.60 13.60,-1.60"/>
    </edge>
    <edge id=":3_15" function="internal">
        <lane id=":3_15_0" index="0" speed="10.36" length="7.98" shape="-13.60,-1.60 -6.95,-0.65 -5.87,-0.00"/>
    </edge>
    <edge id=":3_19" function="internal">
        <lane id=":3_19_0" index="0" speed="10.36" length="16.53" shape="-5.87,-0.00 -2.20,2.20 0.65,6.95 1.60,13.60"/>
    </edge>
    <edge id=":4_0" function="internal">
        <lane id=":4_0_0" index="0" speed="6.51" length="9.03" shape="92.00,13.60 91.65,11.15 90.60,9.40 88.85,8.35 86.40,8.00"/>
    </edge>
    <edge id=":4_1" function="internal">
        <lane id=":4_1_0" index="0" speed="13.89" length="27.20" shape="95.20,13.60 95.20,-13.60"/>
        <lane id=":4_1_1" index="1" speed="13.89" length="27.20" shape="98.40,13.60 98.40,-13.60"/>
    </edge>
    <edge id=":4_3" function="internal">
        <lane id=":4_3_0" index="0" speed="10.36" length="7.98" shape="98.40,13.60 99.35,6.95 100.00,5.87"/>
    </edge>
    <edge id=":4_16" function="internal">
        <lane id=":4_16_0" index="0" speed="10.36" length="16.53" shape="100.00,5.87 102.20,2.20 106.95,-0.65 113.60,-1.60"/>
    </edge>
    <edge id=":4_4" function="internal">
        <lane id=":4_4_0" index="0" speed="6.51" length="9.03" shape="113.60,8.00 111.15,8.35 109.40,9.40 108.35,11.15 108.00,13.60"/>
    </edge>
    <edge id=":4_5" function="internal">
        <lane id=":4_5_0" index="0" speed="13.89" length="27.20" shape="113.60,4.80 86.40,4.80"/>
        <lane id=":4_5_1" index="1" speed="13.89" length="27.20" shape="113.60,1.60 86.40,1.60"/>
    </edge>
    <edge id=":4_7" function="internal">
        <lane id=":4_7_0" index="0" speed="10.36" length="7.98" shape="113.60,1.60 106.95,0.65 105.87,0.00"/>
    </edge>
    <edge id=":4_17" function="internal">
        <lane id=":4_17_0" index="0" speed="10.36" length="16.53" shape="105.87,0.00 102.20,-2.20 99.35,-6.95 98.40,-13.60"/>
    </edge>
    <edge id=":4_8" function="internal">
        <lane id=":4_8_0" index="0" speed="6.51" length="9.03" shape="108.00,-13.60 108.35,-11.15 109.40,-9.40 111.15,-8.35 113.60,-8.00"/>
    </edge>
    <edge id=":4_9" function="internal">
        <lane id=":4_9_0" index="0" speed="13.89" length="27.20" shape="104.80,-13.60 104.80,13.60"/>
        <lane id=":4_9_1" index="1" speed="13.89" length="27.20" shape="101.60,-13.60 101.60,13.60"/>
    </edge>
    <edge id=":4_11" function="internal">
        <lane id=":4_11_0" index="0" speed="10.36" length="7.98" shape="101.60,-13.60 100.65,-6.95 100.00,-5.87"/>
    </edge>
    <edge id=":4_18" function="internal">
        <lane id=":4_18_0" index="0" speed="10.36" length="16.53" shape="100.00,-5.87 97.80,-2.20 93.05,0.65 86.40,1.60"/>
    </edge>
    <edge id=":4_12" function="internal">
        <lane id=":4_12_0" index="0" speed="6.51" length="9.03" shape="86.40,-8.00 88.85,-8.35 90.60,-9.40 91.65,-11.15 92.00,-13.60"/>
    </edge>
    <edge id=":4_13" function="internal">
        <lane id=":4_13_0" index="0" speed="13.89" length="27.20" shape="86.40,-4.80 113.60,-4.80"/>
        <lane id=":4_13_1" index="1" speed="13.89" length="27.20" shape="86.40,-1.60 113.60,-1.60"/>
    </edge>
    <edge id=":4_15" function="internal">
        <lane id=":4_15_0" index="0" speed="10.36" length="7.98" shape="86.40,-1.60 93.05,-0.65 94.13,-0.00"/>
    </edge>
    <edge id=":4_19" function="internal">
        <lane id=":4_19_0" index="0" speed="10.36" length="16.53" shape="94.13,-0.00 97.80,2.20 100.65,6.95 101.60,13.60"/>
    </edge>
    <edge id=":7_0" function="internal">
        <lane id=":7_0_0" index="0" speed="6.51" length="9.03" shape="-8.00,-86.40 -8.35,-88.85 -9.40,-90.60 -11.15,-91.65 -13.60,-92.00"/>
    </edge>
    <edge id=":7_1" function="internal">
        <lane id=":7_1_0" index="0" speed="13.89" length="27.20" shape="-4.80,-86.40 -4.80,-113.60"/>
        <lane id=":7_1_1" index="1" speed="13.89" length="27.20" shape="-1.60,-86.40 -1.60,-113.60"/>
    </edge>
    <edge id=":7_3" function="internal">
        <lane id=":7_3_0" index="0" speed="10.36" length="7.98" shape="-1.60,-86.40 -0.65,-93.05 -0.00,-94.13"/>
    </edge>
    <edge id=":7_16" function="internal">
        <lane id=":7_16_0" index="0" speed="10.36" length="16.53" shape="-0.00,-94.13 2.20,-97.80 6.95,-100.65 13.60,-101.60"/>
    </edge>
    <edge id=":7_4" function="internal">
        <lane id=":7_4_0" index="0" speed="6.51" length="9.03" shape="13.60,-92.00 11.15,-91.65 9.40,-90.60 8.35,-88.85 8.00,-86.40"/>
    </edge>
    <edge id=":7_5" function="internal">
        <lane id=":7_5_0" index="0" speed="13.89" length="27.20" shape="13.60,-95.20 -13.60,-95.20"/>
        <lane id=":7_5_1" index="1" speed="13.89" length="27.20" shape="13.60,-98.40 -13.60,-98.40"/>
    </edge>
    <edge id=":7_7" function="internal">
        <lane id=":7_7_0" index="0" speed="10.36" length="7.98" shape="13.60,-98.40 6.95,-99.35 5.87,-100.00"/>
    </edge>
    <edge id=":7_17" function="internal">
        <lane id=":7_17_0" index="0" speed="10.36" length="16.53" shape="5.87,-100.00 2.20,-102.20 -0.65,-106.95 -1.60,-113.60"/>
    </edge>
    <edge id=":7_8" function="internal">
        <lane id=":7_8_0" index="0" speed="6.51" length="9.03" shape="8.00,-113.60 8.35,-111.15 9.40,-109.40 11.15,-108.35 13.60,-108.00"/>
    </edge>
    <edge id=":7_9" function="internal">
        <lane id=":7_9_0" index="0" speed="13.89" length="27.20" shape="4.80,-113.60 4.80,-86.40"/>
        <lane id=":7_9_1" index="1" speed="13.89" length="27.20" shape="1.60,-113.60 1.60,-86.40"/>
    </edge>
    <edge id=":7_11" function="internal">
        <lane id=":7_11_0" index="0" speed="10.36" length="7.98" shape="1.60,-113.60 0.65,-106.95 0.00,-105.87"/>
    </edge>
    <edge id=":7_18" function="internal">
        <lane id=":7_18_0" index="0" speed="10.36" length="16.53" shape="0.00,-105.87 -2.20,-102.20 -6.95,-99.35 -13.60,-98.40"/>
    </edge>
    <edge id=":7_12" function="internal">
        <lane id=":7_12_0" index="0" speed="6.51" length="9.03" shape="-13.60,-108.00 -11.15,-108.35 -9.40,-109.40 -8.35,-111.15 -8.00,-113.60"/>
    </edge>
    <edge id=":7_13" function="internal">
        <lane id=":7_13_0" index="0" speed="13.89" length="27.20" shape="-13.60,-104.80 13.60,-104.80"/>
        <lane id=":7_13_1" index="1" speed="13.89" length="27.20" shape="-13.60,-101.60 13.60,-101.60"/>
    </edge>
    <edge id=":7_15" function="internal">
        <lane id=":7_15_0" index="0" speed="10.36" length="7.98" shape="-13.60,-101.60 -6.95,-100.65 -5.87,-100.00"/>
    </edge>
    <edge id=":7_19" function="internal">
        <lane id=":7_19_0" index="0" speed="10.36" length="16.53" shape="-5.87,-100.00 -2.20,-97.80 0.65,-93.05 1.60,-86.40"/>
    </edge>
    <edge id=":8_0" function="internal">
        <lane id=":8_0_0" index="0" speed="6.51" length="9.03" shape="92.00,-86.40 91.65,-88.85 90.60,-90.60 88.85,-91.65 86.40,-92.00"/>
    </edge>
    <edge id=":8_1" function="internal">
        <lane id=":8_1_0" index="0" speed="13.89" length="27.20" shape="95.20,-86.40 95.20,-113.60"/>
        <lane id=":8_1_1" index="1" speed="13.89" length="27.20" shape="98.40,-86.40 98.40,-113.60"/>
    </edge>
    <edge id=":8_3" function="internal">
        <lane id=":8_3_0" index="0" speed="10.36" length="7.98" shape="98.40,-86.40 99.35,-93.05 100.00,-94.13"/>
    </edge>
    <edge id=":8_16" function="internal">
        <lane id=":8_16_0" index="0" speed="10.36" length="16.53" shape="100.00,-94.13 102.20,-97.80 106.95,-100.65 113.60,-101.60"/>
    </edge>
    <edge id=":8_4" function="internal">
        <lane id=":8_4_0" index="0" speed="6.51" length="9.03" shape="113.60,-92.00 111.15,-91.65 109.40,-90.60 108.35,-88.85 108.00,-86.40"/>
    </edge>
    <edge id=":8_5" function="internal">
        <lane id=":8_5_0" index="0" speed="13.89" length="27.20" shape="113.60,-95.20 86.40,-95.20"/>
        <lane id=":8_5_1" index="1" speed="13.89" length="27.20" shape="113.60,-98.40 86.40,-98.40"/>
    </edge>
    <edge id=":8_7" function="internal">
        <lane id=":8_7_0" index="0" speed="10.36" length="7.98" shape="113.60,-98.40 106.95,-99.35 105.87,-100.00"/>
    </edge>
    <edge id=":8_17" function="internal">
        <lane id=":8_17_0" index="0" speed="10.36" length="16.53" shape="105.87,-100.00 102.20,-102.20 99.35,-106.95 98.40,-113.60"/>
    </edge>
    <edge id=":8_8" function="internal">
        <lane id=":8_8_0" index="0" speed="6.51" length="9.03" shape="108.00,-113.60 108.35,-111.15 109.40,-109.40 111.15,-108.35 113.60,-108.00"/>
    </edge>
    <edge id=":8_9" function="internal">
        <lane id=":8_9_0" index="0" speed="13.89" length="27.20" shape="104.80,-113.60 104.80,-86.40"/>
        <lane id=":8_9_1" index="1" speed="13.89" length="27.20" shape="101.60,-113.60 101.60,-86.40"/>
    </edge>
    <edge id=":8_11" function="internal">
        <lane id=":8_11_0" index="0" speed="10.36" length="7.98" shape="101.60,-113.60 100.65,-106.95 100.00,-105.87"/>
    </edge>
    <edge id=":8_18" function="internal">
        <lane id=":8_18_0" index="0" speed="10.36" length="16.53" shape="100.00,-105.87 97.80,-102.20 93.05,-99.35 86.40,-98.40"/>
    </edge>
    <edge id=":8_12" function="internal">
        <lane id=":8_12_0" index="0" speed="6.51" length="9.03" shape="86.40,-108.00 88.85,-108.35 90.60,-109.40 91.65,-111.15 92.00,-113.60"/>
    </edge>
    <edge id=":8_13" function="internal">
        <lane id=":8_13_0" index="0" speed="13.89" length="27.20" shape="86.40,-104.80 113.60,-104.80"/>
        <lane id=":8_13_1" index="1" speed="13.89" length="27.20" shape="86.40,-101.60 113.60,-101.60"/>
    </edge>
    <edge id=":8_15" function="internal">
        <lane id=":8_15_0" index="0" speed="10.36" length="7.98" shape="86.40,-101.60 93.05,-100.65 94.13,-100.00"/>
    </edge>
    <edge id=":8_19" function="internal">
        <lane id=":8_19_0" index="0" speed="10.36" length="16.53" shape="94.13,-100.00 97.80,-97.80 100.65,-93.05 101.60,-86.40"/>
    </edge>

    <edge id="e1i" from="4" to="3" priority="-1">
        <lane id="e1i_0" index="0" speed="13.89" length="72.80" shape="86.40,8.00 13.60,8.00"/>
        <lane id="e1i_1" index="1" speed="13.89" length="72.80" shape="86.40,4.80 13.60,4.80"/>
        <lane id="e1i_2" index="2" speed="13.89" length="72.80" shape="86.40,1.60 13.60,1.60"/>
    </edge>
    <edge id="e2i" from="5" to="4" priority="-1">
        <lane id="e2i_0" index="0" speed="13.89" length="86.40" shape="200.00,8.00 113.60,8.00"/>
        <lane id="e2i_1" index="1" speed="13.89" length="86.40" shape="200.00,4.80 113.60,4.80"/>
        <lane id="e2i_2" index="2" speed="13.89" length="86.40" shape="200.00,1.60 113.60,1.60"/>
    </edge>
    <edge id="e2o" from="4" to="5" priority="-1">
        <lane id="e2o_0" index="0" speed="13.89" length="86.40" shape="113.60,-8.00 200.00,-8.00"/>
        <lane id="e2o_1" index="1" speed="13.89" length="86.40" shape="113.60,-4.80 200.00,-4.80"/>
        <lane id="e2o_2" index="2" speed="13.89" length="86.40" shape="113.60,-1.60 200.00,-1.60"/>
    </edge>
    <edge id="e3i" from="8" to="7" priority="-1">
        <lane id="e3i_0" index="0" speed="13.89" length="72.80" shape="86.40,-92.00 13.60,-92.00"/>
        <lane id="e3i_1" index="1" speed="13.89" length="72.80" shape="86.40,-95.20 13.60,-95.20"/>
        <lane id="e3i_2" index="2" speed="13.89" length="72.80" shape="86.40,-98.40 13.60,-98.40"/>
    </edge>
    <edge id="e4i" from="9" to="8" priority="-1">
        <lane id="e4i_0" index="0" speed="13.89" length="86.40" shape="200.00,-92.00 113.60,-92.00"/>
        <lane id="e4i_1" index="1" speed="13.89" length="86.40" shape="200.00,-95.20 113.60,-95.20"/>
        <lane id="e4i_2" index="2" speed="13.89" length="86.40" shape="200.00,-98.40 113.60,-98.40"/>
    </edge>
    <edge id="e4o" from="8" to="9" priority="-1">
        <lane id="e4o_0" index="0" speed="13.89" length="86.40" shape="113.60,-108.00 200.00,-108.00"/>
        <lane id="e4o_1" index="1" speed="13.89" length="86.40" shape="113.60,-104.80 200.00,-104.80"/>
        <lane id="e4o_2" index="2" speed="13.89" length="86.40" shape="113.60,-101.60 200.00,-101.60"/>
    </edge>
    <edge id="n1i" from="0" to="3" priority="-1">
        <lane id="n1i_0" index="0" speed="13.89" length="86.40" shape="-8.00,100.00 -8.00,13.60"/>
        <lane id="n1i_1" index="1" speed="13.89" length="86.40" shape="-4.80,100.00 -4.80,13.60"/>
        <lane id="n1i_2" index="2" speed="13.89" length="86.40" shape="-1.60,100.00 -1.60,13.60"/>
    </edge>
    <edge id="n1o" from="3" to="0" priority="-1">
        <lane id="n1o_0" index="0" speed="13.89" length="86.40" shape="8.00,13.60 8.00,100.00"/>
        <lane id="n1o_1" index="1" speed="13.89" length="86.40" shape="4.80,13.60 4.80,100.00"/>
        <lane id="n1o_2" index="2" speed="13.89" length="86.40" shape="1.60,13.60 1.60,100.00"/>
    </edge>
    <edge id="n2i" from="1" to="4" priority="-1">
        <lane id="n2i_0" index="0" speed="13.89" length="86.40" shape="92.00,100.00 92.00,13.60"/>
        <lane id="n2i_1" index="1" speed="13.89" length="86.40" shape="95.20,100.00 95.20,13.60"/>
        <lane id="n2i_2" index="2" speed="13.89" length="86.40" shape="98.40,100.00 98.40,13.60"/>
    </edge>
    <edge id="n2o" from="4" to="1" priority="-1">
        <lane id="n2o_0" index="0" speed="13.89" length="86.40" shape="108.00,13.60 108.00,100.00"/>
        <lane id="n2o_1" index="1" speed="13.89" length="86.40" shape="104.80,13.60 104.80,100.00"/>
        <lane id="n2o_2" index="2" speed="13.89" length="86.40" shape="101.60,13.60 101.60,100.00"/>
    </edge>
    <edge id="n3i" from="3" to="7" priority="-1">
        <lane id="n3i_0" index="0" speed="13.89" length="72.80" shape="-8.00,-13.60 -8.00,-86.40"/>
        <lane id="n3i_1" index="1" speed="13.89" length="72.80" shape="-4.80,-13.60 -4.80,-86.40"/>
        <lane id="n3i_2" index="2" speed="13.89" length="72.80" shape="-1.60,-13.60 -1.60,-86.40"/>
    </edge>
    <edge id="n4i" from="4" to="8" priority="-1">
        <lane id="n4i_0" index="0" speed="13.89" length="72.80" shape="92.00,-13.60 92.00,-86.40"/>
        <lane id="n4i_1" index="1" speed="13.89" length="72.80" shape="95.20,-13.60 95.20,-86.40"/>
        <lane id="n4i_2" index="2" speed="13.89" length="72.80" shape="98.40,-13.60 98.40,-86.40"/>
    </edge>
    <edge id="s1i" from="7" to="3" priority="-1">
        <lane id="s1i_0" index="0" speed="13.89" length="72.80" shape="8.00,-86.40 8.00,-13.60"/>
        <lane id="s1i_1" index="1" speed="13.89" length="72.80" shape="4.80,-86.40 4.80,-13.60"/>
        <lane id="s1i_2" index="2" speed="13.89" length="72.80" shape="1.60,-86.40 1.60,-13.60"/>
    </edge>
    <edge id="s2i" from="8" to="4" priority="-1">
        <lane id="s2i_0" index="0" speed="13.89" length="72.80" shape="108.00,-86.40 108.00,-13.60"/>
        <lane id="s2i_1" index="1" speed="13.89" length="72.80" shape="104.80,-86.40 104.80,-13.60"/>
        <lane id="s2i_2" index="2" speed="13.89" length="72.80" shape="101.60,-86.40 101.60,-13.60"/>
    </edge>
    <edge id="s3i" from="10" to="7" priority="-1">
        <lane id="s3i_0" index="0" speed="13.89" length="86.40" shape="8.00,-200.00 8.00,-113.60"/>
        <lane id="s3i_1" index="1" speed="13.89" length="86.40" shape="4.80,-200.00 4.80,-113.60"/>
        <lane id="s3i_2" index="2" speed="13.89" length="86.40" shape="1.60,-200.00 1.60,-113.60"/>
    </edge>
    <edge id="s3o" from="7" to="10" priority="-1">
        <lane id="s3o_0" index="0" speed="13.89" length="86.40" shape="-8.00,-113.60 -8.00,-200.00"/>
        <lane id="s3o_1" index="1" speed="13.89" length="86.40" shape="-4.80,-113.60 -4.80,-200.00"/>
        <lane id="s3o_2" index="2" speed="13.89" length="86.40" shape="-1.60,-113.60 -1.60,-200.00"/>
    </edge>
    <edge id="s4i" from="11" to="8" priority="-1">
        <lane id="s4i_0" index="0" speed="13.89" length="86.40" shape="108.00,-200.00 108.00,-113.60"/>
        <lane id="s4i_1" index="1" speed="13.89" length="86.40" shape="104.80,-200.00 104.80,-113.60"/>
        <lane id="s4i_2" index="2" speed="13.89" length="86.40" shape="101.60,-200.00 101.60,-113.60"/>
    </edge>
    <edge id="s4o" from="8" to="11" priority="-1">
        <lane id="s4o_0" index="0" speed="13.89" length="86.40" shape="92.00,-113.60 92.00,-200.00"/>
        <lane id="s4o_1" index="1" speed="13.89" length="86.40" shape="95.20,-113.60 95.20,-200.00"/>
        <lane id="s4o_2" index="2" speed="13.89" length="86.40" shape="98.40,-113.60 98.40,-200.00"/>
    </edge>
    <edge id="w1i" from="2" to="3" priority="-1">
        <lane id="w1i_0" index="0" speed="13.89" length="86.40" shape="-100.00,-8.00 -13.60,-8.00"/>
        <lane id="w1i_1" index="1" speed="13.89" length="86.40" shape="-100.00,-4.80 -13.60,-4.80"/>
        <lane id="w1i_2" index="2" speed="13.89" length="86.40" shape="-100.00,-1.60 -13.60,-1.60"/>
    </edge>
    <edge id="w1o" from="3" to="2" priority="-1">
        <lane id="w1o_0" index="0" speed="13.89" length="86.40" shape="-13.60,8.00 -100.00,8.00"/>
        <lane id="w1o_1" index="1" speed="13.89" length="86.40" shape="-13.60,4.80 -100.00,4.80"/>
        <lane id="w1o_2" index="2" speed="13.89" length="86.40" shape="-13.60,1.60 -100.00,1.60"/>
    </edge>
    <edge id="w2i" from="3" to="4" priority="-1">
        <lane id="w2i_0" index="0" speed="13.89" length="72.80" shape="13.60,-8.00 86.40,-8.00"/>
        <lane id="w2i_1" index="1" speed="13.89" length="72.80" shape="13.60,-4.80 86.40,-4.80"/>
        <lane id="w2i_2" index="2" speed="13.89" length="72.80" shape="13.60,-1.60 86.40,-1.60"/>
    </edge>
    <edge id="w3i" from="6" to="7" priority="-1">
        <lane id="w3i_0" index="0" speed="13.89" length="86.40" shape="-100.00,-108.00 -13.60,-108.00"/>
        <lane id="w3i_1" index="1" speed="13.89" length="86.40" shape="-100.00,-104.80 -13.60,-104.80"/>
        <lane id="w3i_2" index="2" speed="13.89" length="86.40" shape="-100.00,-101.60 -13.60,-101.60"/>
    </edge>
    <edge id="w3o" from="7" to="6" priority="-1">
        <lane id="w3o_0" index="0" speed="13.89" length="86.40" shape="-13.60,-92.00 -100.00,-92.00"/>
        <lane id="w3o_1" index="1" speed="13.89" length="86.40" shape="-13.60,-95.20 -100.00,-95.20"/>
        <lane id="w3o_2" index="2" speed="13.89" length="86.40" shape="-13.60,-98.40 -100.00,-98.40"/>
    </edge>
    <edge id="w4i" from="7" to="8" priority="-1">
        <lane id="w4i_0" index="0" speed="13.89" length="72.80" shape="13.60,-108.00 86.40,-108.00"/>
        <lane id="w4i_1" index="1" speed="13.89" length="72.80" shape="13.60,-104.80 86.40,-104.80"/>
        <lane id="w4i_2" index="2" speed="13.89" length="72.80" shape="13.60,-101.60 86.40,-101.60"/>
    </edge>

    <tlLogic id="3" type="static" programID="0" offset="0">
        <phase duration="42" state="GGGgrrrrGGGgrrrr"/>
        <phase duration="4"  state="yyyyrrrryyyyrrrr"/>
        <phase duration="42" state="rrrrGGGgrrrrGGGg"/>
        <phase duration="4"  state="rrrryyyyrrrryyyy"/>
    </tlLogic>
    <tlLogic id="4" type="static" programID="0" offset="0">
        <phase duration="42" state="GGGgrrrrGGGgrrrr"/>
        <phase duration="4"  state="yyyyrrrryyyyrrrr"/>
        <phase duration="42" state="rrrrGGGgrrrrGGGg"/>
        <phase duration="4"  state="rrrryyyyrrrryyyy"/>
    </tlLogic>
    <tlLogic id="7" type="static" programID="0" offset="0">
        <phase duration="42" state="GGGgrrrrGGGgrrrr"/>
        <phase duration="4"  state="yyyyrrrryyyyrrrr"/>
        <phase duration="42" state="rrrrGGGgrrrrGGGg"/>
        <phase duration="4"  state="rrrryyyyrrrryyyy"/>
    </tlLogic>
    <tlLogic id="8" type="static" programID="0" offset="0">
        <phase duration="42" state="GGGgrrrrGGGgrrrr"/>
        <phase duration="4"  state="yyyyrrrryyyyrrrr"/>
        <phase duration="42" state="rrrrGGGgrrrrGGGg"/>
        <phase duration="4"  state="rrrryyyyrrrryyyy"/>
    </tlLogic>

    <junction id="0" type="dead_end" x="0.00" y="100.00" incLanes="n1o_0 n1o_1 n1o_2" intLanes="" shape="0.00,100.00 9.60,100.00 0.00,100.00"/>
    <junction id="1" type="dead_end" x="100.00" y="100.00" incLanes="n2o_0 n2o_1 n2o_2" intLanes="" shape="100.00,100.00 109.60,100.00 100.00,100.00"/>
    <junction id="10" type="dead_end" x="0.00" y="-200.00" incLanes="s3o_0 s3o_1 s3o_2" intLanes="" shape="0.00,-200.00 -9.60,-200.00 0.00,-200.00"/>
    <junction id="11" type="dead_end" x="100.00" y="-200.00" incLanes="s4o_0 s4o_1 s4o_2" intLanes="" shape="100.00,-200.00 90.40,-200.00 100.00,-200.00"/>
    <junction id="2" type="dead_end" x="-100.00" y="0.00" incLanes="w1o_0 w1o_1 w1o_2" intLanes="" shape="-100.00,0.00 -100.00,9.60 -100.00,0.00"/>
    <junction id="3" type="traffic_light" x="0.00" y="0.00" incLanes="n1i_0 n1i_1 n1i_2 e1i_0 e1i_1 e1i_2 s1i_0 s1i_1 s1i_2 w1i_0 w1i_1 w1i_2" intLanes=":3_0_0 :3_1_0 :3_1_1 :3_16_0 :3_4_0 :3_5_0 :3_5_1 :3_17_0 :3_8_0 :3_9_0 :3_9_1 :3_18_0 :3_12_0 :3_13_0 :3_13_1 :3_19_0" shape="-9.60,13.60 9.60,13.60 10.04,11.38 10.60,10.60 11.38,10.04 12.38,9.71 13.60,9.60 13.60,-9.60 11.38,-10.04 10.60,-10.60 10.04,-11.38 9.71,-12.38 9.60,-13.60 -9.60,-13.60 -10.04,-11.38 -10.60,-10.60 -11.38,-10.04 -12.38,-9.71 -13.60,-9.60 -13.60,9.60 -11.38,10.04 -10.60,10.60 -10.04,11.38 -9.71,12.38">
        <request index="0"  response="0000000000000000" foes="0000000000000000" cont="0"/>
        <request index="1"  response="1000000010000000" foes="1110100011100000" cont="0"/>
        <request index="2"  response="1000000010000000" foes="1110100011100000" cont="0"/>
        <request index="3"  response="1000011010000000" foes="1110011011100000" cont="1"/>
        <request index="4"  response="0000000000000000" foes="0000000000000000" cont="0"/>
        <request index="5"  response="0000111000001110" foes="1000111000001110" cont="0"/>
        <request index="6"  response="0000111000001110" foes="1000111000001110" cont="0"/>
        <request index="7"  response="0110111000001110" foes="0110111000001110" cont="1"/>
        <request index="8"  response="0000000000000000" foes="0000000000000000" cont="0"/>
        <request index="9"  response="1000000010000000" foes="1110000011101000" cont="0"/>
        <request index="10" response="1000000010000000" foes="1110000011101000" cont="0"/>
        <request index="11" response="1000000010000110" foes="1110000011100110" cont="1"/>
        <request index="12" response="0000000000000000" foes="0000000000000000" cont="0"/>
        <request index="13" response="0000111000001110" foes="0000111010001110" cont="0"/>
        <request index="14" response="0000111000001110" foes="0000111010001110" cont="0"/>
        <request index="15" response="0000111001101110" foes="0000111001101110" cont="1"/>
    </junction>
    <junction id="4" type="traffic_light" x="100.00" y="0.00" incLanes="n2i_0 n2i_1 n2i_2 e2i_0 e2i_1 e2i_2 s2i_0 s2i_1 s2i_2 w2i_0 w2i_1 w2i_2" intLanes=":4_0_0 :4_1_0 :4_1_1 :4_16_0 :4_4_0 :4_5_0 :4_5_1 :4_17_0 :4_8_0 :4_9_0 :4_9_1 :4_18_0 :4_12_0 :4_13_0 :4_13_1 :4_19_0" shape="90.40,13.60 109.60,13.60 110.04,11.38 110.60,10.60 111.38,10.04 112.38,9.71 113.60,9.60 113.60,-9.60 111.38,-10.04 110.60,-10.60 110.04,-11.38 109.71,-12.38 109.60,-13.60 90.40,-13.60 89.96,-11.38 89.40,-10.60 88.62,-10.04 87.62,-9.71 86.40,-9.60 86.40,9.60 88.62,10.04 89.40,10.60 89.96,11.38 90.29,12.38">
        <request index="0"  response="0000000000000000" foes="0000000000000000" cont="0"/>
        <request index="1"  response="1000000010000000" foes="1110100011100000" cont="0"/>
        <request index="2"  response="1000000010000000" foes="1110100011100000" cont="0"/>
        <request index="3"  response="1000011010000000" foes="1110011011100000" cont="1"/>
        <request index="4"  response="0000000000000000" foes="0000000000000000" cont="0"/>
        <request index="5"  response="0000111000001110" foes="1000111000001110" cont="0"/>
        <request index="6"  response="0000111000001110" foes="1000111000001110" cont="0"/>
        <request index="7"  response="0110111000001110" foes="0110111000001110" cont="1"/>
        <request index="8"  response="0000000000000000" foes="0000000000000000" cont="0"/>
        <request index="9"  response="1000000010000000" foes="1110000011101000" cont="0"/>
        <request index="10" response="1000000010000000" foes="1110000011101000" cont="0"/>
        <request index="11" response="1000000010000110" foes="1110000011100110" cont="1"/>
        <request index="12" response="0000000000000000" foes="0000000000000000" cont="0"/>
        <request index="13" response="0000111000001110" foes="0000111010001110" cont="0"/>
        <request index="14" response="0000111000001110" foes="0000111010001110" cont="0"/>
        <request index="15" response="0000111001101110" foes="0000111001101110" cont="1"/>
    </junction>
    <junction id="5" type="dead_end" x="200.00" y="0.00" incLanes="e2o_0 e2o_1 e2o_2" intLanes="" shape="200.00,0.00 200.00,-9.60 200.00,0.00"/>
    <junction id="6" type="dead_end" x="-100.00" y="-100.00" incLanes="w3o_0 w3o_1 w3o_2" intLanes="" shape="-100.00,-100.00 -100.00,-90.40 -100.00,-100.00"/>