<?xml version="1.0" encoding="UTF-8"?>

<!-- generated on 06/22/20 11:30:18 by Eclipse SUMO netedit Version 1.4.0
<configuration xmlns:xsi="http://www.w3.org/2001/XMLSchema-instance" xsi:noNamespaceSchemaLocation="http://sumo.dlr.de/xsd/netconvertConfiguration.xsd">

    <output>
        <output-file value="C:\Users\aarda\Sumo\myownmaps\extended\single_direction_example.net.xml"/>
    </output>

    <processing>
        <offset.disable-normalization value="true"/>
    </processing>

    <junctions>
        <no-turnarounds value="true"/>
    </junctions>

    <report>
        <aggregate-warnings value="5"/>
    </report>

</configuration>
-->

<net version="1.3" junctionCornerDetail="5" limitTurnSpeed="5.50" xmlns:xsi="http://www.w3.org/2001/XMLSchema-instance" xsi:noNamespaceSchemaLocation="http://sumo.dlr.de/xsd/net_file.xsd">

    <location netOffset="0.00,0.00" convBoundary="-100.00,-100.00,100.00,100.00" origBoundary="10000000000.00,10000000000.00,-10000000000.00,-10000000000.00" projParameter="!"/>

    <edge id=":2_0" function="internal">
        <lane id=":2_0_0" index="0" speed="13.89" length="27.10" shape="10.36,12.62 5.85,9.20 0.13,6.76 -6.80,5.29 -14.93,4.80"/>
    </edge>
    <edge id=":2_1" function="internal">
        <lane id=":2_1_0" index="0" speed="13.89" length="32.50" shape="10.36,12.62 -12.62,-10.36"/>
    </edge>
    <edge id=":2_2" function="internal">
        <lane id=":2_2_0" index="0" speed="7.50" length="6.04" shape="10.36,12.62 7.43,7.92 7.42,7.42"/>
    </edge>
    <edge id=":2_14" function="internal">
        <lane id=":2_14_0" index="0" speed="7.50" length="13.68" shape="7.42,7.42 7.33,3.31 9.89,-0.20 14.93,-1.60"/>
    </edge>
    <edge id=":2_3" function="internal">
        <lane id=":2_3_0" index="0" speed="5.47" length="9.74" shape="14.93,4.80 11.83,5.15 10.42,6.19 10.68,7.93 12.62,10.36"/>
    </edge>
    <edge id=":2_4" function="internal">
        <lane id=":2_4_0" index="0" speed="13.89" length="29.85" shape="14.93,4.80 -14.93,4.80"/>
        <lane id=":2_4_1" index="1" speed="13.89" length="29.85" shape="14.93,1.60 -14.93,1.60"/>
    </edge>
    <edge id=":2_6" function="internal">
        <lane id=":2_6_0" index="0" speed="13.89" length="10.44" shape="14.93,1.60 7.36,0.85 4.65,-0.00"/>
    </edge>
    <edge id=":2_15" function="internal">
        <lane id=":2_15_0" index="0" speed="13.89" length="20.38" shape="4.65,-0.00 0.24,-1.39 -6.42,-5.13 -12.62,-10.36"/>
    </edge>
    <edge id=":2_7" function="internal">
        <lane id=":2_7_0" index="0" speed="13.89" length="27.10" shape="-10.36,-12.62 -5.85,-9.20 -0.13,-6.76 6.80,-5.29 14.93,-4.80"/>
    </edge>
    <edge id=":2_8" function="internal">
        <lane id=":2_8_0" index="0" speed="13.89" length="32.50" shape="-10.36,-12.62 12.62,10.36"/>
    </edge>
    <edge id=":2_9" function="internal">
        <lane id=":2_9_0" index="0" speed="7.50" length="6.04" shape="-10.36,-12.62 -7.43,-7.92 -7.42,-7.42"/>
    </edge>
    <edge id=":2_16" function="internal">
        <lane id=":2_16_0" index="0" speed="7.50" length="13.68" shape="-7.42,-7.42 -7.33,-3.31 -9.89,0.20 -14.93,1.60"/>
    </edge>
    <edge id=":2_10" function="internal">
        <lane id=":2_10_0" index="0" speed="5.47" length="9.74" shape="-14.93,-4.80 -11.83,-5.15 -10.42,-6.19 -10.68,-7.93 -12.62,-10.36"/>
    </edge>
    <edge id=":2_11" function="internal">
        <lane id=":2_11_0" index="0" speed="13.89" length="29.85" shape="-14.93,-4.80 14.93,-4.80"/>
        <lane id=":2_11_1" index="1" speed="13.89" length="29.85" shape="-14.93,-1.60 14.93,-1.60"/>
    </edge>
    <edge id=":2_13" function="internal">
        <lane id=":2_13_0" index="0" speed="13.89" length="10.44" shape="-14.93,-1.60 -7.36,-0.85 -4.65,0.00"/>
    </edge>
    <edge id=":2_17" function="internal">
        <lane id=":2_17_0" index="0" speed="13.89" length="20.38" shape="-4.65,0.00 -0.24,1.39 6.42,5.13 12.62,10.36"/>
    </edge>

    <edge id="e1i" from="3" to="2" priority="-1">
        <lane id="e1i_0" index="0" speed="13.89" length="85.07" shape="100.00,4.80 14.93,4.80"/>
        <lane id="e1i_1" index="1" speed="13.89" length="85.07" shape="100.00,1.60 14.93,1.60"/>
    </edge>
    <edge id="e1o" from="2" to="3" priority="-1">
        <lane id="e1o_0" index="0" speed="13.89" length="85.07" shape="14.93,-4.80 100.00,-4.80"/>
        <lane id="e1o_1" index="1" speed="13.89" length="85.07" shape="14.93,-1.60 100.00,-1.60"/>
    </edge>
    <edge id="n1i" from="0" to="2" priority="-1">
        <lane id="n1i_0" index="0" speed="13.89" length="125.17" shape="98.87,101.13 10.36,12.62"/>
    </edge>
    <edge id="n1o" from="2" to="0" priority="-1">
        <lane id="n1o_0" index="0" speed="13.89" length="125.17" shape="12.62,10.36 101.13,98.87"/>
    </edge>
    <edge id="s1i" from="4" to="2" priority="-1">
        <lane id="s1i_0" index="0" speed="13.89" length="125.17" shape="-98.87,-101.13 -10.36,-12.62"/>
    </edge>
    <edge id="s1o" from="2" to="4" priority="-1">
        <lane id="s1o_0" index="0" speed="13.89" length="125.17" shape="-12.62,-10.36 -101.13,-98.87"/>
    </edge>
    <edge id="w1i" from="1" to="2" priority="-1">
        <lane id="w1i_0" index="0" speed="13.89" length="85.07" shape="-100.00,-4.80 -14.93,-4.80"/>
        <lane id="w1i_1" index="1" speed="13.89" length="85.07" shape="-100.00,-1.60 -14.93,-1.60"/>
    </edge>
    <edge id="w1o" from="2" to="1" priority="-1">
        <lane id="w1o_0" index="0" speed="13.89" length="85.07" shape="-14.93,4.80 -100.00,4.80"/>
        <lane id="w1o_1" index="1" speed="13.89" length="85.07" shape="-14.93,1.60 -100.00,1.60"/>
    </edge>

    <tlLogic id="gneJ5" type="static" programID="0" offset="0">
        <phase duration="42" state="rrrGGGgrrrGGGg"/>
        <phase duration="3"  state="rrryyyyrrryyyy"/>
        <phase duration="42" state="GGgrrrrGGgrrrr"/>
        <phase duration="3"  state="yyyrrrryyyrrrr"/>
    </tlLogic>

    <junction id="0" type="dead_end" x="100.00" y="100.00" incLanes="n1o_0" intLanes="" shape="100.00,100.00 102.26,97.74 100.00,100.00"/>
    <junction id="1" type="dead_end" x="-100.00" y="0.00" incLanes="w1o_0 w1o_1" intLanes="" shape="-100.00,0.00 -100.00,6.40 -100.00,0.00"/>
    <junction id="2" type="traffic_light" x="0.00" y="0.00" incLanes="n1i_0 e1i_0 e1i_1 s1i_0 w1i_0 w1i_1" intLanes=":2_0_0 :2_1_0 :2_14_0 :2_3_0 :2_4_0 :2_4_1 :2_15_0 :2_7_0 :2_8_0 :2_16_0 :2_10_0 :2_11_0 :2_11_1 :2_17_0" shape="9.23,13.75 13.75,9.23 12.63,7.66 12.63,7.11 13.02,6.71 13.78,6.48 14.93,6.40 14.93,-6.40 9.59,-6.60 4.78,-7.22 0.49,-8.24 -3.28,-9.67 -6.51,-11.51 -9.23,-13.75 -13.75,-9.23 -12.63,-7.66 -12.63,-7.11 -13.02,-6.71 -13.78,-6.48 -14.93,-6.40 -14.93,6.40 -9.59,6.60 -4.78,7.22 -0.49,8.24 3.28,9.67 6.51,11.51">
        <request index="0"  response="00000000110000" foes="00000000110000" cont="0"/>
        <request index="1"  response="11110001110000" foes="11111001110000" cont="0"/>
        <request index="2"  response="11100101110000" foes="11100101110000" cont="1"/>
        <request index="3"  response="00000000000000" foes="10000100000000" cont="0"/>
        <request index="4"  response="00001000000100" foes="10001100000111" cont="0"/>
        <request index="5"  response="00001000000100" foes="10001100000111" cont="0"/>
        <request index="6"  response="01111000000100" foes="01111100000110" cont="1"/>
        <request index="7"  response="01100000000000" foes="01100000000000" cont="0"/>
        <request index="8"  response="11100001111000" foes="11100001111100" cont="0"/>
        <request index="9"  response="11100001110010" foes="11100001110010" cont="1"/>
        <request index="10" response="00000000000000" foes="00000001000010" cont="0"/>
        <request index="11" response="00001000000100" foes="00001111000110" cont="0"/>
        <request index="12" response="00001000000100" foes="00001111000110" cont="0"/>
        <request index="13" response="00001000111100" foes="00001100111110" cont="1"/>
    </junction>
    <junction id="3" type="dead_end" x="100.00" y="0.00" incLanes="e1o_0 e1o_1" intLanes="" shape="100.00,0.00 100.00,-6.40 100.00,0.00"/>
    <junction id="4" type="dead_end" x="-100.00" y="-100.00" incLanes="s1o_0" intLanes="" shape="-100.00,-100.00 -102.26,-97.74 -100.00,-100.00"/>

    <junction id=":2_14_0" type="internal" x="7.42" y="7.42" incLanes=":2_2_0 s1i_0" intLanes=":2_4_0 :2_4_1 :2_6_0 :2_7_0 :2_8_0 :2_11_0 :2_11_1 :2_13_0"/>
    <junction id=":2_15_0" type="internal" x="4.65" y="-0.00" incLanes=":2_6_0 w1i_0 w1i_1" intLanes=":2_1_0 :2_2_0 :2_8_0 :2_9_0 :2_10_0 :2_11_0 :2_11_1"/>
    <junction id=":2_16_0" type="internal" x="-7.42" y="-7.42" incLanes=":2_9_0 n1i_0" intLanes=":2_0_0 :2_1_0 :2_4_0 :2_4_1 :2_6_0 :2_11_0 :2_11_1 :2_13_0"/>
    <junction id=":2_17_0" type="internal" x="-4.65" y="0.00" incLanes=":2_13_0 e1i_0 e1i_1" intLanes=":2_1_0 :2_2_0 :2_3_0 :2_4_0 :2_4_1 :2_8_0 :2_9_0"/>

    <connection from="e1i" to="n1o" fromLane="0" toLane="0" via=":2_3_0" tl="gneJ5" linkIndex="3" dir="r" state="O"/>
    <connection from="e1i" to="w1o" fromLane="0" toLane="0" via=":2_4_0" tl="gneJ5" linkIndex="4" dir="s" state="O"/>
    <connection from="e1i" to="w1o" fromLane="1" toLane="1" via=":2_4_1" tl="gneJ5" linkIndex="5" dir="s" state="O"/>
    <connection from="e1i" to="s1o" fromLane="1" toLane="0" via=":2_6_0" tl="gneJ5" linkIndex="6" dir="l" state="o"/>
    <connection from="n1i" to="w1o" fromLane="0" toLane="0" via=":2_0_0" tl="gneJ5" linkIndex="0" dir="r" state="o"/>
    <connection from="n1i" to="s1o" fromLane="0" toLane="0" via=":2_1_0" tl="gneJ5" linkIndex="1" dir="s" state="o"/>
    <connection from="n1i" to="e1o" fromLane="0" toLane="1" via=":2_2_0" tl="gneJ5" linkIndex="2" dir="l" state="o"/>
    <connection from="s1i" to="e1o" fromLane="0" toLane="0" via=":2_7_0" tl="gneJ5" linkIndex="7" dir="r" state="o"/>
    <connection from="s1i" to="n1o" fromLane="0" toLane="0" via=":2_8_0" tl="gneJ5" linkIndex="8" dir="s" state="o"/>
    <connection from="s1i" to="w1o" fromLane="0" toLane="1" via=":2_9_0" tl="gneJ5" linkIndex="9" dir="l" state="o"/>
    <connection from="w1i" to="s1o" fromLane="0" toLane="0" via=":2_10_0" tl="gneJ5" linkIndex="10" dir="r" state="O"/>
    <connection from="w1i" to="e1o" fromLane="0" toLane="0" via=":2_11_0" tl="gneJ5" linkIndex="11" dir="s" state="O"/>
    <connection from="w1i" to="e1o" fromLane="1" toLane="1" via=":2_11_1" tl="gneJ5" linkIndex="12" dir="s" state="O"/>
    <connection from="w1i" to="n1o" fromLane="1" toLane="0" via=":2_13_0" tl="gneJ5" linkIndex="13" dir="l" state="o"/>

    <connection from=":2_0" to="w1o" fromLane="0" toLane="0" dir="r" state="M"/>
    <connection from=":2_1" to="s1o" fromLane="0" toLane="0" dir="s" state="M"/>
    <connection from=":2_2" to="e1o" fromLane="0" toLane="1" via=":2_14_0" dir="l" state="m"/>
    <connection from=":2_14" to="e1o" fromLane="0" toLane="1" dir="l" state="M"/>
    <connection from=":2_3" to="n1o" fromLane="0" toLane="0" dir="r" state="M"/>
    <connection from=":2_4" to="w1o" fromLane="0" toLane="0" dir="s" state="M"/>
    <connection from=":2_4" to="w1o" fromLane="1" toLane="1" dir="s" state="M"/>
    <connection from=":2_6" to="s1o" fromLane="0" toLane="0" via=":2_15_0" dir="l" state="m"/>
    <connection from=":2_15" to="s1o" fromLane="0" toLane="0" dir="l" state="M"/>
    <connection from=":2_7" to="e1o" fromLane="0" toLane="0" dir="r" state="M"/>
    <connection from=":2_8" to="n1o" fromLane="0" toLane="0" dir="s" state="M"/>
    <connection from=":2_9" to="w1o" fromLane="0" toLane="1" via=":2_16_0" dir="l" state="m"/>
    <connection from=":2_16" to="w1o" fromLane="0" toLane="1" dir="l" state="M"/>
    <connection from=":2_10" to="s1o" fromLane="0" toLane="0" dir="r" state="M"/>
    <connection from=":2_11" to="e1o" fromLane="0" toLane="0" dir="s" state="M"/>
    <connection from=":2_11" to="e1o" fromLane="1" toLane="1" dir="s" state="M"/>
    <connection from=":2_13" to="n1o" fromLane="0" toLane="0" via=":2_17_0" dir="l" state="m"/>
    <connection from=":2_17" to="n1o" fromLane="0" toLane="0" dir="l" state="M"/>

</net>
